A71EV2AZ-x0446_A_245_1_A71EV2AZ-x0239+A+245+1__LIG
     RDKit          3D

 15 16  0  0  0  0  0  0  0  0999 V2000
   11.1880  -12.8780    6.8460 C   0  0  0  0  0  0  0  0  0  0  0  0
    9.8610  -12.5450    7.4510 C   0  0  0  0  0  0  0  0  0  0  0  0
    8.7200  -12.8500    6.7310 N   0  0  0  0  0  0  0  0  0  0  0  0
    7.6540  -12.3840    7.3080 C   0  0  0  0  0  0  0  0  0  0  0  0
    7.9390  -11.5520    8.7670 S   0  0  0  0  0  0  0  0  0  0  0  0
    9.6300  -11.9500    8.6670 C   0  0  0  0  0  0  0  0  0  0  0  0
   10.6150  -11.6470    9.7730 C   0  0  0  0  0  0  0  0  0  0  0  0
   11.8090  -11.4810    9.5380 O   0  0  0  0  0  0  0  0  0  0  0  0
   10.1190  -11.5700   10.9990 N   0  0  0  0  0  0  0  0  0  0  0  0
   10.9550  -11.1980   12.1310 C   0  0  0  0  0  0  0  0  0  0  0  0
   10.4570   -9.9560   12.8350 C   0  0  0  0  0  0  0  0  0  0  0  0
   10.5090   -8.7150   11.9530 C   0  0  0  0  0  0  0  0  0  0  0  0
   11.2960   -7.6750   12.7290 C   0  0  0  0  0  0  0  0  0  0  0  0
   12.0060   -8.3730   13.8330 C   0  0  0  0  0  0  0  0  0  0  0  0
   11.2430   -9.6530   14.0990 C   0  0  0  0  0  0  0  0  0  0  0  0
  1  2  1  0
  2  3  1  0
  3  4  2  0
  4  5  1  0
  5  6  1  0
  6  7  1  0
  7  8  2  0
  7  9  1  0
  9 10  1  0
 10 11  1  0
 11 12  1  0
 12 13  1  0
 13 14  1  0
 14 15  1  0
  2  6  2  0
 11 15  1  0
M  END
$$$$
