A71EV2AZ-x0239_A_245_1_A71EV2AZ-x0239+A+245+1__LIG
     RDKit          3D

 13 13  0  0  0  0  0  0  0  0999 V2000
   -7.0810   -2.2340   -1.1930 C   0  0  0  0  0  0  0  0  0  0  0  0
   -8.5610   -1.8340   -1.1870 C   0  0  1  0  0  0  0  0  0  0  0  0
   -9.2780   -2.3180    0.0820 C   0  0  0  0  0  0  0  0  0  0  0  0
  -10.7620   -2.5570   -0.0720 C   0  0  0  0  0  0  0  0  0  0  0  0
  -11.4920   -2.0450   -1.1390 C   0  0  0  0  0  0  0  0  0  0  0  0
  -12.8530   -2.2670   -1.2580 C   0  0  0  0  0  0  0  0  0  0  0  0
  -13.4910   -3.0060   -0.2930 C   0  0  0  0  0  0  0  0  0  0  0  0
  -15.3560   -3.3110   -0.4360 Br  0  0  0  0  0  0  0  0  0  0  0  0
  -12.8100   -3.5220    0.7800 C   0  0  0  0  0  0  0  0  0  0  0  0
  -11.4490   -3.2920    0.8820 C   0  0  0  0  0  0  0  0  0  0  0  0
   -8.6960   -0.3200   -1.3240 C   0  0  0  0  0  0  0  0  0  0  0  0
   -9.5240    0.1790   -2.0830 O   0  0  0  0  0  0  0  0  0  0  0  0
   -7.9000    0.4170   -0.5660 N   0  0  0  0  0  0  0  0  0  0  0  0
  2  1  1  1
  2  3  1  0
  3  4  1  0
  4  5  2  0
  5  6  1  0
  6  7  2  0
  7  8  1  0
  7  9  1  0
  9 10  2  0
  2 11  1  0
 11 12  2  0
 11 13  1  0
  4 10  1  0
M  END
$$$$
