ver_1.2
     RDKit          3D

 22 24  0  0  0  0  0  0  0  0999 V2000
    5.0458    2.5977    1.1278 C   0  0  0  0  0  0  0  0  0  0  0  0
    4.5857    1.1616    1.3136 C   0  0  0  0  0  0  0  0  0  0  0  0
    5.0320    0.3906    0.2588 O   0  0  0  0  0  0  0  0  0  0  0  0
    3.0748    1.1919    1.3288 C   0  0  0  0  0  0  0  0  0  0  0  0
    2.5123    1.7325    0.1249 N   0  0  0  0  0  0  0  0  0  0  0  0
    2.7381    0.8069   -0.9609 C   0  0  0  0  0  0  0  0  0  0  0  0
    2.0063   -0.4570   -0.7387 C   0  0  0  0  0  0  0  0  0  0  0  0
    2.5018   -1.5523   -0.0833 C   0  0  0  0  0  0  0  0  0  0  0  0
    1.7273   -2.6785    0.0643 C   0  0  0  0  0  0  0  0  0  0  0  0
    0.4368   -2.7366   -0.4407 C   0  0  0  0  0  0  0  0  0  0  0  0
   -0.0629   -1.6346   -1.1003 C   0  0  0  0  0  0  0  0  0  0  0  0
   -1.4342   -1.6244   -1.6679 C   0  0  0  0  0  0  0  0  0  0  0  0
   -2.3485   -1.1538   -0.6411 N   0  0  0  0  0  0  0  0  0  0  0  0
   -2.9755   -1.9581    0.2354 C   0  0  0  0  0  0  0  0  0  0  0  0
   -3.7573   -1.2433    1.0645 N   0  0  0  0  0  0  0  0  0  0  0  0
   -3.6332    0.0688    0.7143 C   0  0  0  0  0  0  0  0  0  0  0  0
   -4.1918    1.2365    1.2064 C   0  0  0  0  0  0  0  0  0  0  0  0
   -3.8436    2.4302    0.6062 C   0  0  0  0  0  0  0  0  0  0  0  0
   -2.9652    2.5048   -0.4597 C   0  0  0  0  0  0  0  0  0  0  0  0
   -2.4125    1.3243   -0.9430 C   0  0  0  0  0  0  0  0  0  0  0  0
   -2.7405    0.1019   -0.3627 C   0  0  0  0  0  0  0  0  0  0  0  0
    0.7042   -0.5090   -1.2507 C   0  0  0  0  0  0  0  0  0  0  0  0
  1  2  1  0
  2  3  1  0
  2  4  1  0
  4  5  1  0
  5  6  1  0
  6  7  1  0
  7  8  2  0
  8  9  1  0
  9 10  2  0
 10 11  1  0
 11 12  1  0
 12 13  1  0
 13 14  1  0
 14 15  2  0
 15 16  1  0
 16 17  2  0
 17 18  1  0
 18 19  2  0
 19 20  1  0
 20 21  2  0
 11 22  2  0
 22  7  1  0
 21 13  1  0
 21 16  1  0
M  END
>  <ref_url>  (1) 
https://github.com/mwinokan/BulkDock

>  <submitter_name>  (1) 
Max Winokan

>  <submitter_email>  (1) 
max.winokan@diamond.ac.uk

>  <submitter_institution>  (1) 
DLS

>  <generation_date>  (1) 
2025-02-10

>  <method>  (1) 
iter1_frags_knitwork_pure

>  <SLURM_JOB_ID>  (1) 
SLURM_JOB_ID

>  <SLURM_JOB_NAME>  (1) 
SLURM_JOB_NAME

>  <csv_name>  (1) 
csv_name

>  <scratch_subdir>  (1) 
scratch_subdir

>  <fragmenstein_runtime>  (1) 
fragmenstein_runtime

>  <fragmenstein_outcome>  (1) 
fragmenstein_outcome

>  <fragmenstein_mode>  (1) 
fragmenstein_mode

>  <fragmenstein_error>  (1) 
fragmenstein_error

>  <exports>  (1) 
exports

>  <HIPPO Pose ID>  (1) 
HIPPO Pose ID

>  <HIPPO Compound ID>  (1) 
HIPPO Compound ID

>  <smiles>  (1) 
smiles

>  <ref_pdb>  (1) 
protein reference

>  <ref_mols>  (1) 
fragment inspirations

>  <original ID>  (1) 
original ID

>  <compound inchikey>  (1) 
compound inchikey

$$$$
320
     RDKit          3D

 22 24  0  0  0  0  0  0  0  0999 V2000
  -35.6725   -5.5738   -1.3957 C   0  0  0  0  0  0  0  0  0  0  0  0
  -35.8520   -5.4081   -2.8987 C   0  0  2  0  0  0  0  0  0  0  0  0
  -35.9844   -6.7073   -3.4845 O   0  0  0  0  0  0  0  0  0  0  0  0
  -34.6926   -4.6334   -3.5675 C   0  0  0  0  0  0  0  0  0  0  0  0
  -33.4202   -5.3225   -3.3979 N   0  0  0  0  0  0  0  0  0  0  0  0
  -32.2215   -4.6386   -3.8738 C   0  0  0  0  0  0  0  0  0  0  0  0
  -32.0181   -4.6098   -5.3724 C   0  0  0  0  0  0  0  0  0  0  0  0
  -32.8083   -3.7464   -6.1168 C   0  0  0  0  0  0  0  0  0  0  0  0
  -32.6286   -3.6420   -7.4818 C   0  0  0  0  0  0  0  0  0  0  0  0
  -31.6625   -4.3602   -8.1498 C   0  0  0  0  0  0  0  0  0  0  0  0
  -30.7674   -5.1504   -7.4389 C   0  0  0  0  0  0  0  0  0  0  0  0
  -29.5510   -5.6551   -8.1944 C   0  0  0  0  0  0  0  0  0  0  0  0
  -28.7151   -4.5258   -8.6040 N   0  0  0  0  0  0  0  0  0  0  0  0
  -27.7770   -3.9321   -7.8003 C   0  0  0  0  0  0  0  0  0  0  0  0
  -27.3148   -2.8177   -8.3199 N   0  0  0  0  0  0  0  0  0  0  0  0
  -27.9853   -2.6762   -9.5114 C   0  0  0  0  0  0  0  0  0  0  0  0
  -27.9224   -1.6383  -10.4509 C   0  0  0  0  0  0  0  0  0  0  0  0
  -28.7155   -1.7100  -11.5982 C   0  0  0  0  0  0  0  0  0  0  0  0
  -29.5328   -2.8118  -11.8306 C   0  0  0  0  0  0  0  0  0  0  0  0
  -29.5865   -3.8751  -10.9227 C   0  0  0  0  0  0  0  0  0  0  0  0
  -28.8236   -3.7649   -9.7503 C   0  0  0  0  0  0  0  0  0  0  0  0
  -30.9751   -5.3030   -6.0441 C   0  0  0  0  0  0  0  0  0  0  0  0
  2  1  1  1
  2  3  1  0
  2  4  1  0
  4  5  1  0
  5  6  1  0
  6  7  1  0
  7  8  2  0
  8  9  1  0
  9 10  2  0
 10 11  1  0
 11 12  1  0
 12 13  1  0
 13 14  1  0
 14 15  2  0
 15 16  1  0
 16 17  2  0
 17 18  1  0
 18 19  2  0
 19 20  1  0
 20 21  2  0
 11 22  2  0
 22  7  1  0
 21 13  1  0
 21 16  1  0
M  END
>  <ref_mols>  (1) 
A0503a,A0759a

>  <energy_score>  (1) 
-3.199831

>  <original SMILES>  (1) 
C[C@H](O)CNCc1cccc(Cn2cnc3ccccc32)c1

>  <SLURM_JOB_ID>  (1) 
282121

>  <exports>  (1) 
['/opt/xchem-fragalysis-2/maxwin/BulkDock/OUTPUTS/2AZ_iter1_frags_knitwork_pure_split1000_batch000_282121.sdf']

>  <HIPPO Pose ID>  (1) 
320

>  <fragmenstein_mode>  (1) 
expansion

>  <original ID>  (1) 
JUOHPSFGSZHWSU-AWEZNQCLSA-N

>  <fragmenstein_error>  (1) 
None

>  <scratch_subdir>  (1) 
/opt/xchem-fragalysis-2/maxwin/BulkDock/SCRATCH/282121/C318-P6

>  <csv_name>  (1) 
2AZ_iter1_frags_knitwork_pure_split1000_batch000.csv

>  <SLURM_JOB_NAME>  (1) 
BulkDock.place:A71EV2AZ:2AZ_iter1_frags_knitwork_pure_split1000_batch000

>  <HIPPO Compound ID>  (1) 
318

>  <inchikey>  (1) 
JUOHPSFGSZHWSU-AWEZNQCLSA-N

>  <ref_pdb>  (1) 
A0759a

>  <alias>  (1) 
None

>  <distance_score>  (1) 
0.997382

>  <name>  (1) 
JUOHPSFGSZHWSU-AWEZNQCLSA-N

>  <fragmenstein_outcome>  (1) 
acceptable

>  <tags>  (1) 
['Fragmenstein placed']

>  <fragmenstein_runtime>  (1) 
1.362805

$$$$
355
     RDKit          3D

 18 20  0  0  0  0  0  0  0  0999 V2000
  -33.7278   -5.1355   -7.6065 C   0  0  0  0  0  0  0  0  0  0  0  0
  -32.6237   -4.9200   -6.6644 N   0  0  0  0  0  0  0  0  0  0  0  0
  -31.4336   -4.4958   -7.4353 C   0  0  0  0  0  0  0  0  0  0  0  0
  -30.4464   -5.6853   -7.5612 C   0  0  1  0  0  0  0  0  0  0  0  0
  -31.1445   -6.9382   -7.6159 O   0  0  0  0  0  0  0  0  0  0  0  0
  -29.5278   -5.6039   -8.7794 C   0  0  0  0  0  0  0  0  0  0  0  0
  -28.8431   -4.3414   -8.9146 N   0  0  0  0  0  0  0  0  0  0  0  0
  -27.9109   -3.8469   -8.0456 C   0  0  0  0  0  0  0  0  0  0  0  0
  -27.4740   -2.6666   -8.4219 N   0  0  0  0  0  0  0  0  0  0  0  0
  -28.1291   -2.4038   -9.6027 C   0  0  0  0  0  0  0  0  0  0  0  0
  -28.0230   -1.3029  -10.4591 C   0  0  0  0  0  0  0  0  0  0  0  0
  -28.8158   -1.2627  -11.6082 C   0  0  0  0  0  0  0  0  0  0  0  0
  -29.7036   -2.2932  -11.9030 C   0  0  0  0  0  0  0  0  0  0  0  0
  -29.8125   -3.4105  -11.0735 C   0  0  0  0  0  0  0  0  0  0  0  0
  -29.0065   -3.4345   -9.9295 C   0  0  0  0  0  0  0  0  0  0  0  0
  -33.0416   -3.9820   -5.6093 C   0  0  0  0  0  0  0  0  0  0  0  0
  -33.8352   -4.5065   -4.4347 C   0  0  0  0  0  0  0  0  0  0  0  0
  -32.4182   -4.0614   -4.2433 C   0  0  0  0  0  0  0  0  0  0  0  0
  1  2  1  0
  2  3  1  0
  3  4  1  0
  4  5  1  6
  4  6  1  0
  6  7  1  0
  7  8  1  0
  8  9  2  0
  9 10  1  0
 10 11  2  0
 11 12  1  0
 12 13  2  0
 13 14  1  0
 14 15  2  0
  2 16  1  0
 16 17  1  0
 17 18  1  0
 15  7  1  0
 18 16  1  0
 15 10  1  0
M  END
>  <ref_mols>  (2) 
A0503a,A0759a

>  <energy_score>  (2) 
-30.854632

>  <original SMILES>  (2) 
CN(C[C@@H](O)Cn1cnc2ccccc21)C1CC1

>  <SLURM_JOB_ID>  (2) 
282121

>  <exports>  (2) 
['/opt/xchem-fragalysis-2/maxwin/BulkDock/OUTPUTS/2AZ_iter1_frags_knitwork_pure_split1000_batch000_282121.sdf']

>  <HIPPO Pose ID>  (2) 
355

>  <fragmenstein_mode>  (2) 
expansion

>  <original ID>  (2) 
BUXILFOCFYKWEO-GFCCVEGCSA-N

>  <fragmenstein_error>  (2) 
None

>  <scratch_subdir>  (2) 
/opt/xchem-fragalysis-2/maxwin/BulkDock/SCRATCH/282121/C324-P5

>  <csv_name>  (2) 
2AZ_iter1_frags_knitwork_pure_split1000_batch000.csv

>  <SLURM_JOB_NAME>  (2) 
BulkDock.place:A71EV2AZ:2AZ_iter1_frags_knitwork_pure_split1000_batch000

>  <HIPPO Compound ID>  (2) 
324

>  <inchikey>  (2) 
BUXILFOCFYKWEO-GFCCVEGCSA-N

>  <ref_pdb>  (2) 
A0503a

>  <alias>  (2) 
None

>  <distance_score>  (2) 
0.88842

>  <name>  (2) 
BUXILFOCFYKWEO-GFCCVEGCSA-N

>  <fragmenstein_outcome>  (2) 
acceptable

>  <tags>  (2) 
['Fragmenstein placed']

>  <fragmenstein_runtime>  (2) 
1.507328

$$$$
395
     RDKit          3D

 21 23  0  0  0  0  0  0  0  0999 V2000
  -34.0126   -4.9831   -3.7021 C   0  0  0  0  0  0  0  0  0  0  0  0
  -33.7183   -3.7007   -4.4637 C   0  0  1  0  0  0  0  0  0  0  0  0
  -32.6408   -3.0092   -3.8229 O   0  0  0  0  0  0  0  0  0  0  0  0
  -33.4003   -3.9260   -5.9642 C   0  0  0  0  0  0  0  0  0  0  0  0
  -32.1369   -4.6333   -6.2162 N   0  0  0  0  0  0  0  0  0  0  0  0
  -31.7350   -4.5651   -7.6351 C   0  0  0  0  0  0  0  0  0  0  0  0
  -30.8003   -5.7053   -7.9756 C   0  0  0  0  0  0  0  0  0  0  0  0
  -31.2727   -7.0205   -7.8128 C   0  0  0  0  0  0  0  0  0  0  0  0
  -30.4239   -8.1105   -7.9805 C   0  0  0  0  0  0  0  0  0  0  0  0
  -29.1026   -7.8633   -8.2935 C   0  0  0  0  0  0  0  0  0  0  0  0
  -28.5999   -6.6258   -8.4714 N   0  0  0  0  0  0  0  0  0  0  0  0
  -29.4600   -5.5752   -8.3540 C   0  0  0  0  0  0  0  0  0  0  0  0
  -28.8853   -4.3096   -8.5898 N   0  0  0  0  0  0  0  0  0  0  0  0
  -27.8175   -3.8015   -7.8915 C   0  0  0  0  0  0  0  0  0  0  0  0
  -27.4321   -2.6294   -8.3455 N   0  0  0  0  0  0  0  0  0  0  0  0
  -28.1943   -2.4272   -9.4699 C   0  0  0  0  0  0  0  0  0  0  0  0
  -28.1307   -1.3844  -10.4035 C   0  0  0  0  0  0  0  0  0  0  0  0
  -28.9752   -1.4208  -11.5150 C   0  0  0  0  0  0  0  0  0  0  0  0
  -29.8712   -2.4724  -11.6962 C   0  0  0  0  0  0  0  0  0  0  0  0
  -29.9593   -3.5203  -10.7727 C   0  0  0  0  0  0  0  0  0  0  0  0
  -29.1126   -3.4616   -9.6570 C   0  0  0  0  0  0  0  0  0  0  0  0
  2  1  1  1
  2  3  1  0
  2  4  1  0
  4  5  1  0
  5  6  1  0
  6  7  1  0
  7  8  2  0
  8  9  1  0
  9 10  2  0
 10 11  1  0
 11 12  2  0
 12 13  1  0
 13 14  1  0
 14 15  2  0
 15 16  1  0
 16 17  2  0
 17 18  1  0
 18 19  2  0
 19 20  1  0
 20 21  2  0
 12  7  1  0
 21 13  1  0
 21 16  1  0
M  END
>  <ref_mols>  (3) 
A0503a,A0759a

>  <energy_score>  (3) 
-20.354537

>  <original SMILES>  (3) 
C[C@@H](O)CNCc1cccnc1-n1cnc2ccccc21

>  <SLURM_JOB_ID>  (3) 
282121

>  <exports>  (3) 
['/opt/xchem-fragalysis-2/maxwin/BulkDock/OUTPUTS/2AZ_iter1_frags_knitwork_pure_split1000_batch000_282121.sdf']

>  <HIPPO Pose ID>  (3) 
395

>  <fragmenstein_mode>  (3) 
expansion

>  <original ID>  (3) 
XVPJEXHCKXPYIT-GFCCVEGCSA-N

>  <fragmenstein_error>  (3) 
None

>  <scratch_subdir>  (3) 
/opt/xchem-fragalysis-2/maxwin/BulkDock/SCRATCH/282121/C332-P5

>  <csv_name>  (3) 
2AZ_iter1_frags_knitwork_pure_split1000_batch000.csv

>  <SLURM_JOB_NAME>  (3) 
BulkDock.place:A71EV2AZ:2AZ_iter1_frags_knitwork_pure_split1000_batch000

>  <HIPPO Compound ID>  (3) 
332

>  <inchikey>  (3) 
XVPJEXHCKXPYIT-GFCCVEGCSA-N

>  <ref_pdb>  (3) 
A0503a

>  <alias>  (3) 
None

>  <distance_score>  (3) 
0.651871

>  <name>  (3) 
XVPJEXHCKXPYIT-GFCCVEGCSA-N

>  <fragmenstein_outcome>  (3) 
acceptable

>  <tags>  (3) 
['Fragmenstein placed']

>  <fragmenstein_runtime>  (3) 
1.219713

$$$$
396
     RDKit          3D

 21 23  0  0  0  0  0  0  0  0999 V2000
  -33.5604   -4.3709   -3.4443 C   0  0  0  0  0  0  0  0  0  0  0  0
  -33.8046   -3.4014   -4.5881 C   0  0  1  0  0  0  0  0  0  0  0  0
  -33.1019   -2.1782   -4.3324 O   0  0  0  0  0  0  0  0  0  0  0  0
  -33.4512   -3.9693   -5.9848 C   0  0  0  0  0  0  0  0  0  0  0  0
  -32.0337   -4.2790   -6.1854 N   0  0  0  0  0  0  0  0  0  0  0  0
  -31.6879   -4.4349   -7.6147 C   0  0  0  0  0  0  0  0  0  0  0  0
  -30.7701   -5.6194   -7.8099 C   0  0  0  0  0  0  0  0  0  0  0  0
  -31.2762   -6.8997   -7.5173 C   0  0  0  0  0  0  0  0  0  0  0  0
  -30.4439   -8.0143   -7.5104 C   0  0  0  0  0  0  0  0  0  0  0  0
  -29.1027   -7.8222   -7.7679 C   0  0  0  0  0  0  0  0  0  0  0  0
  -28.5673   -6.6197   -8.0538 N   0  0  0  0  0  0  0  0  0  0  0  0
  -29.4106   -5.5510   -8.1287 C   0  0  0  0  0  0  0  0  0  0  0  0
  -28.7942   -4.3381   -8.5069 N   0  0  0  0  0  0  0  0  0  0  0  0
  -27.6333   -3.8607   -7.9473 C   0  0  0  0  0  0  0  0  0  0  0  0
  -27.2392   -2.7307   -8.4893 N   0  0  0  0  0  0  0  0  0  0  0  0
  -28.0964   -2.5398   -9.5430 C   0  0  0  0  0  0  0  0  0  0  0  0
  -28.0513   -1.5615  -10.5422 C   0  0  0  0  0  0  0  0  0  0  0  0
  -28.9809   -1.6220  -11.5814 C   0  0  0  0  0  0  0  0  0  0  0  0
  -29.9573   -2.6140  -11.6187 C   0  0  0  0  0  0  0  0  0  0  0  0
  -30.0319   -3.5901  -10.6212 C   0  0  0  0  0  0  0  0  0  0  0  0
  -29.0859   -3.5238   -9.5866 C   0  0  0  0  0  0  0  0  0  0  0  0
  2  1  1  1
  2  3  1  0
  2  4  1  0
  4  5  1  0
  5  6  1  0
  6  7  1  0
  7  8  2  0
  8  9  1  0
  9 10  2  0
 10 11  1  0
 11 12  2  0
 12 13  1  0
 13 14  1  0
 14 15  2  0
 15 16  1  0
 16 17  2  0
 17 18  1  0
 18 19  2  0
 19 20  1  0
 20 21  2  0
 12  7  1  0
 21 13  1  0
 21 16  1  0
M  END
>  <ref_mols>  (4) 
A0503a,A0759a

>  <energy_score>  (4) 
-18.56497

>  <original SMILES>  (4) 
C[C@@H](O)CNCc1cccnc1-n1cnc2ccccc21

>  <SLURM_JOB_ID>  (4) 
282121

>  <exports>  (4) 
['/opt/xchem-fragalysis-2/maxwin/BulkDock/OUTPUTS/2AZ_iter1_frags_knitwork_pure_split1000_batch000_282121.sdf']

>  <HIPPO Pose ID>  (4) 
396

>  <fragmenstein_mode>  (4) 
expansion

>  <original ID>  (4) 
XVPJEXHCKXPYIT-GFCCVEGCSA-N

>  <fragmenstein_error>  (4) 
None

>  <scratch_subdir>  (4) 
/opt/xchem-fragalysis-2/maxwin/BulkDock/SCRATCH/282121/C332-P6

>  <csv_name>  (4) 
2AZ_iter1_frags_knitwork_pure_split1000_batch000.csv

>  <SLURM_JOB_NAME>  (4) 
BulkDock.place:A71EV2AZ:2AZ_iter1_frags_knitwork_pure_split1000_batch000

>  <HIPPO Compound ID>  (4) 
332

>  <inchikey>  (4) 
XVPJEXHCKXPYIT-GFCCVEGCSA-N

>  <ref_pdb>  (4) 
A0759a

>  <alias>  (4) 
None

>  <distance_score>  (4) 
0.722485

>  <name>  (4) 
XVPJEXHCKXPYIT-GFCCVEGCSA-N

>  <fragmenstein_outcome>  (4) 
acceptable

>  <tags>  (4) 
['Fragmenstein placed']

>  <fragmenstein_runtime>  (4) 
1.215354

$$$$
467
     RDKit          3D

 17 18  0  0  0  0  0  0  0  0999 V2000
  -34.2000   -4.9138   -3.5172 C   0  0  0  0  0  0  0  0  0  0  0  0
  -33.4861   -4.0778   -4.5712 C   0  0  1  0  0  0  0  0  0  0  0  0
  -33.2473   -2.7933   -3.9879 O   0  0  0  0  0  0  0  0  0  0  0  0
  -32.1455   -4.7117   -5.0034 C   0  0  0  0  0  0  0  0  0  0  0  0
  -31.5911   -4.1257   -6.2392 N   0  0  0  0  0  0  0  0  0  0  0  0
  -30.1362   -4.3591   -6.3513 C   0  0  0  0  0  0  0  0  0  0  0  0
  -29.5863   -3.8132   -7.6435 C   0  0  0  0  0  0  0  0  0  0  0  0
  -28.7791   -2.7724   -7.7811 N   0  0  0  0  0  0  0  0  0  0  0  0
  -28.7433   -2.5126   -9.1321 C   0  0  0  0  0  0  0  0  0  0  0  0
  -28.0977   -1.4881   -9.8286 C   0  0  0  0  0  0  0  0  0  0  0  0
  -28.3419   -1.3635  -11.1928 C   0  0  0  0  0  0  0  0  0  0  0  0
  -27.6710   -0.4401  -11.8906 F   0  0  0  0  0  0  0  0  0  0  0  0
  -29.2168   -2.2106  -11.8596 C   0  0  0  0  0  0  0  0  0  0  0  0
  -29.7971   -3.2969  -11.2021 C   0  0  0  0  0  0  0  0  0  0  0  0
  -29.5261   -3.4209   -9.8347 C   0  0  0  0  0  0  0  0  0  0  0  0
  -29.9130   -4.3263   -8.8801 N   0  0  0  0  0  0  0  0  0  0  0  0
  -30.6062   -5.5628   -9.1354 C   0  0  0  0  0  0  0  0  0  0  0  0
  2  1  1  1
  2  3  1  0
  2  4  1  0
  4  5  1  0
  5  6  1  0
  6  7  1  0
  7  8  2  0
  8  9  1  0
  9 10  2  0
 10 11  1  0
 11 12  1  0
 11 13  2  0
 13 14  1  0
 14 15  2  0
 15 16  1  0
 16 17  1  0
 16  7  1  0
 15  9  1  0
M  END
>  <ref_mols>  (5) 
A0503a,A0759a

>  <energy_score>  (5) 
-18.2947

>  <original SMILES>  (5) 
C[C@@H](O)CNCc1nc2cc(F)ccc2n1C

>  <SLURM_JOB_ID>  (5) 
282121

>  <exports>  (5) 
['/opt/xchem-fragalysis-2/maxwin/BulkDock/OUTPUTS/2AZ_iter1_frags_knitwork_pure_split1000_batch000_282121.sdf']

>  <HIPPO Pose ID>  (5) 
467

>  <fragmenstein_mode>  (5) 
expansion

>  <original ID>  (5) 
NWIXKFJBQIDTEM-MRVPVSSYSA-N

>  <fragmenstein_error>  (5) 
None

>  <scratch_subdir>  (5) 
/opt/xchem-fragalysis-2/maxwin/BulkDock/SCRATCH/282121/C411-P5

>  <csv_name>  (5) 
2AZ_iter1_frags_knitwork_pure_split1000_batch000.csv

>  <SLURM_JOB_NAME>  (5) 
BulkDock.place:A71EV2AZ:2AZ_iter1_frags_knitwork_pure_split1000_batch000

>  <HIPPO Compound ID>  (5) 
411

>  <inchikey>  (5) 
NWIXKFJBQIDTEM-MRVPVSSYSA-N

>  <ref_pdb>  (5) 
A0503a

>  <alias>  (5) 
None

>  <distance_score>  (5) 
0.990548

>  <name>  (5) 
NWIXKFJBQIDTEM-MRVPVSSYSA-N

>  <fragmenstein_outcome>  (5) 
acceptable

>  <tags>  (5) 
['Fragmenstein placed']

>  <fragmenstein_runtime>  (5) 
1.133617

$$$$
468
     RDKit          3D

 17 18  0  0  0  0  0  0  0  0999 V2000
  -34.1508   -4.2495   -3.3914 C   0  0  0  0  0  0  0  0  0  0  0  0
  -33.5336   -3.6366   -4.6436 C   0  0  1  0  0  0  0  0  0  0  0  0
  -33.3527   -2.2388   -4.3856 O   0  0  0  0  0  0  0  0  0  0  0  0
  -32.1808   -4.2952   -4.9809 C   0  0  0  0  0  0  0  0  0  0  0  0
  -31.6529   -3.9065   -6.2982 N   0  0  0  0  0  0  0  0  0  0  0  0
  -30.2101   -4.2181   -6.4063 C   0  0  0  0  0  0  0  0  0  0  0  0
  -29.6554   -3.7779   -7.7313 C   0  0  0  0  0  0  0  0  0  0  0  0
  -28.8252   -2.7687   -7.9352 N   0  0  0  0  0  0  0  0  0  0  0  0
  -28.8103   -2.5815   -9.2976 C   0  0  0  0  0  0  0  0  0  0  0  0
  -28.1426   -1.6232  -10.0598 C   0  0  0  0  0  0  0  0  0  0  0  0
  -28.3728   -1.5947  -11.4303 C   0  0  0  0  0  0  0  0  0  0  0  0
  -27.6753   -0.7344  -12.1797 F   0  0  0  0  0  0  0  0  0  0  0  0
  -29.2516   -2.4755  -12.0480 C   0  0  0  0  0  0  0  0  0  0  0  0
  -29.8725   -3.4878  -11.3159 C   0  0  0  0  0  0  0  0  0  0  0  0
  -29.6130   -3.5165   -9.9408 C   0  0  0  0  0  0  0  0  0  0  0  0
  -30.0074   -4.3556   -8.9308 N   0  0  0  0  0  0  0  0  0  0  0  0
  -30.7163   -5.5964   -9.1082 C   0  0  0  0  0  0  0  0  0  0  0  0
  2  1  1  1
  2  3  1  0
  2  4  1  0
  4  5  1  0
  5  6  1  0
  6  7  1  0
  7  8  2  0
  8  9  1  0
  9 10  2  0
 10 11  1  0
 11 12  1  0
 11 13  2  0
 13 14  1  0
 14 15  2  0
 15 16  1  0
 16 17  1  0
 16  7  1  0
 15  9  1  0
M  END
>  <ref_mols>  (6) 
A0503a,A0759a

>  <energy_score>  (6) 
-19.170137

>  <original SMILES>  (6) 
C[C@@H](O)CNCc1nc2cc(F)ccc2n1C

>  <SLURM_JOB_ID>  (6) 
282121

>  <exports>  (6) 
['/opt/xchem-fragalysis-2/maxwin/BulkDock/OUTPUTS/2AZ_iter1_frags_knitwork_pure_split1000_batch000_282121.sdf']

>  <HIPPO Pose ID>  (6) 
468

>  <fragmenstein_mode>  (6) 
expansion

>  <original ID>  (6) 
NWIXKFJBQIDTEM-MRVPVSSYSA-N

>  <fragmenstein_error>  (6) 
None

>  <scratch_subdir>  (6) 
/opt/xchem-fragalysis-2/maxwin/BulkDock/SCRATCH/282121/C411-P6

>  <csv_name>  (6) 
2AZ_iter1_frags_knitwork_pure_split1000_batch000.csv

>  <SLURM_JOB_NAME>  (6) 
BulkDock.place:A71EV2AZ:2AZ_iter1_frags_knitwork_pure_split1000_batch000

>  <HIPPO Compound ID>  (6) 
411

>  <inchikey>  (6) 
NWIXKFJBQIDTEM-MRVPVSSYSA-N

>  <ref_pdb>  (6) 
A0759a

>  <alias>  (6) 
None

>  <distance_score>  (6) 
0.996315

>  <name>  (6) 
NWIXKFJBQIDTEM-MRVPVSSYSA-N

>  <fragmenstein_outcome>  (6) 
acceptable

>  <tags>  (6) 
['Fragmenstein placed']

>  <fragmenstein_runtime>  (6) 
1.327767

$$$$
469
     RDKit          3D

 16 17  0  0  0  0  0  0  0  0999 V2000
  -33.9497   -4.8424   -3.3239 C   0  0  0  0  0  0  0  0  0  0  0  0
  -32.7432   -4.2890   -4.0814 C   0  0  2  0  0  0  0  0  0  0  0  0
  -32.6796   -2.8866   -3.8277 O   0  0  0  0  0  0  0  0  0  0  0  0
  -32.8655   -4.5985   -5.5921 C   0  0  0  0  0  0  0  0  0  0  0  0
  -31.8964   -4.0070   -6.5167 N   0  0  0  0  0  0  0  0  0  0  0  0
  -30.4856   -4.3643   -6.3465 C   0  0  0  0  0  0  0  0  0  0  0  0
  -29.7055   -3.8781   -7.5541 C   0  0  0  0  0  0  0  0  0  0  0  0
  -28.9291   -2.8057   -7.6220 N   0  0  0  0  0  0  0  0  0  0  0  0
  -28.8048   -2.5365   -8.9683 C   0  0  0  0  0  0  0  0  0  0  0  0
  -28.2323   -1.4319   -9.6108 C   0  0  0  0  0  0  0  0  0  0  0  0
  -28.4252   -1.2711  -10.9866 C   0  0  0  0  0  0  0  0  0  0  0  0
  -29.1433   -2.2151  -11.7163 C   0  0  0  0  0  0  0  0  0  0  0  0
  -29.6247   -3.3820  -11.1161 C   0  0  0  0  0  0  0  0  0  0  0  0
  -29.4464   -3.5005   -9.7335 C   0  0  0  0  0  0  0  0  0  0  0  0
  -29.8508   -4.4315   -8.8111 N   0  0  0  0  0  0  0  0  0  0  0  0
  -30.4760   -5.6903   -9.1240 C   0  0  0  0  0  0  0  0  0  0  0  0
  2  1  1  1
  2  3  1  0
  2  4  1  0
  4  5  1  0
  5  6  1  0
  6  7  1  0
  7  8  2  0
  8  9  1  0
  9 10  2  0
 10 11  1  0
 11 12  2  0
 12 13  1  0
 13 14  2  0
 14 15  1  0
 15 16  1  0
 15  7  1  0
 14  9  1  0
M  END
>  <ref_mols>  (7) 
A0503a,A0759a

>  <energy_score>  (7) 
-10.022087

>  <original SMILES>  (7) 
C[C@H](O)CNCc1nc2ccccc2n1C

>  <SLURM_JOB_ID>  (7) 
282121

>  <exports>  (7) 
['/opt/xchem-fragalysis-2/maxwin/BulkDock/OUTPUTS/2AZ_iter1_frags_knitwork_pure_split1000_batch000_282121.sdf']

>  <HIPPO Pose ID>  (7) 
469

>  <fragmenstein_mode>  (7) 
expansion

>  <original ID>  (7) 
MVTGOQDBIJSKPE-VIFPVBQESA-N

>  <fragmenstein_error>  (7) 
None

>  <scratch_subdir>  (7) 
/opt/xchem-fragalysis-2/maxwin/BulkDock/SCRATCH/282121/C412-P5

>  <csv_name>  (7) 
2AZ_iter1_frags_knitwork_pure_split1000_batch000.csv

>  <SLURM_JOB_NAME>  (7) 
BulkDock.place:A71EV2AZ:2AZ_iter1_frags_knitwork_pure_split1000_batch000

>  <HIPPO Compound ID>  (7) 
412

>  <inchikey>  (7) 
MVTGOQDBIJSKPE-VIFPVBQESA-N

>  <ref_pdb>  (7) 
A0503a

>  <alias>  (7) 
None

>  <distance_score>  (7) 
0.966491

>  <name>  (7) 
MVTGOQDBIJSKPE-VIFPVBQESA-N

>  <fragmenstein_outcome>  (7) 
acceptable

>  <tags>  (7) 
['Fragmenstein placed']

>  <fragmenstein_runtime>  (7) 
0.958928

$$$$
470
     RDKit          3D

 16 17  0  0  0  0  0  0  0  0999 V2000
  -33.8263   -4.2683   -3.2429 C   0  0  0  0  0  0  0  0  0  0  0  0
  -32.8623   -3.5927   -4.2169 C   0  0  2  0  0  0  0  0  0  0  0  0
  -33.2613   -2.2210   -4.3133 O   0  0  0  0  0  0  0  0  0  0  0  0
  -32.8910   -4.3169   -5.5825 C   0  0  0  0  0  0  0  0  0  0  0  0
  -32.0118   -3.8147   -6.6353 N   0  0  0  0  0  0  0  0  0  0  0  0
  -30.5691   -3.9992   -6.4265 C   0  0  0  0  0  0  0  0  0  0  0  0
  -29.8232   -3.6634   -7.6961 C   0  0  0  0  0  0  0  0  0  0  0  0
  -29.0893   -2.5832   -7.9157 N   0  0  0  0  0  0  0  0  0  0  0  0
  -28.9977   -2.4881   -9.2882 C   0  0  0  0  0  0  0  0  0  0  0  0
  -28.4688   -1.4708  -10.0897 C   0  0  0  0  0  0  0  0  0  0  0  0
  -28.6403   -1.5363  -11.4752 C   0  0  0  0  0  0  0  0  0  0  0  0
  -29.3096   -2.6066  -12.0590 C   0  0  0  0  0  0  0  0  0  0  0  0
  -29.7625   -3.6792  -11.2900 C   0  0  0  0  0  0  0  0  0  0  0  0
  -29.5928   -3.5800   -9.9054 C   0  0  0  0  0  0  0  0  0  0  0  0
  -29.9468   -4.3931   -8.8601 N   0  0  0  0  0  0  0  0  0  0  0  0
  -30.4975   -5.7167   -8.9971 C   0  0  0  0  0  0  0  0  0  0  0  0
  2  1  1  1
  2  3  1  0
  2  4  1  0
  4  5  1  0
  5  6  1  0
  6  7  1  0
  7  8  2  0
  8  9  1  0
  9 10  2  0
 10 11  1  0
 11 12  2  0
 12 13  1  0
 13 14  2  0
 14 15  1  0
 15 16  1  0
 15  7  1  0
 14  9  1  0
M  END
>  <ref_mols>  (8) 
A0503a,A0759a

>  <energy_score>  (8) 
-10.951665

>  <original SMILES>  (8) 
C[C@H](O)CNCc1nc2ccccc2n1C

>  <SLURM_JOB_ID>  (8) 
282121

>  <exports>  (8) 
['/opt/xchem-fragalysis-2/maxwin/BulkDock/OUTPUTS/2AZ_iter1_frags_knitwork_pure_split1000_batch000_282121.sdf']

>  <HIPPO Pose ID>  (8) 
470

>  <fragmenstein_mode>  (8) 
expansion

>  <original ID>  (8) 
MVTGOQDBIJSKPE-VIFPVBQESA-N

>  <fragmenstein_error>  (8) 
None

>  <scratch_subdir>  (8) 
/opt/xchem-fragalysis-2/maxwin/BulkDock/SCRATCH/282121/C412-P6

>  <csv_name>  (8) 
2AZ_iter1_frags_knitwork_pure_split1000_batch000.csv

>  <SLURM_JOB_NAME>  (8) 
BulkDock.place:A71EV2AZ:2AZ_iter1_frags_knitwork_pure_split1000_batch000

>  <HIPPO Compound ID>  (8) 
412

>  <inchikey>  (8) 
MVTGOQDBIJSKPE-VIFPVBQESA-N

>  <ref_pdb>  (8) 
A0759a

>  <alias>  (8) 
None

>  <distance_score>  (8) 
0.957832

>  <name>  (8) 
MVTGOQDBIJSKPE-VIFPVBQESA-N

>  <fragmenstein_outcome>  (8) 
acceptable

>  <tags>  (8) 
['Fragmenstein placed']

>  <fragmenstein_runtime>  (8) 
1.18293

$$$$
483
     RDKit          3D

 17 18  0  0  0  0  0  0  0  0999 V2000
  -31.5247   -6.0461   -9.0896 C   0  0  0  0  0  0  0  0  0  0  0  0
  -30.0257   -5.8435   -9.0363 C   0  0  0  0  0  0  0  0  0  0  0  0
  -29.6356   -4.4741   -8.7819 N   0  0  0  0  0  0  0  0  0  0  0  0
  -29.4754   -3.8722   -7.5508 C   0  0  0  0  0  0  0  0  0  0  0  0
  -30.0698   -4.4200   -6.2753 C   0  0  0  0  0  0  0  0  0  0  0  0
  -31.5067   -4.1058   -6.2044 N   0  0  0  0  0  0  0  0  0  0  0  0
  -32.2049   -4.7429   -5.0793 C   0  0  0  0  0  0  0  0  0  0  0  0
  -33.2930   -3.8412   -4.4487 C   0  0  1  0  0  0  0  0  0  0  0  0
  -34.2337   -4.6243   -3.5394 C   0  0  0  0  0  0  0  0  0  0  0  0
  -32.6669   -2.8146   -3.6690 O   0  0  0  0  0  0  0  0  0  0  0  0
  -28.8219   -2.7276   -7.6892 N   0  0  0  0  0  0  0  0  0  0  0  0
  -28.7827   -2.4938   -9.0459 C   0  0  0  0  0  0  0  0  0  0  0  0
  -28.3261   -1.3725   -9.7499 C   0  0  0  0  0  0  0  0  0  0  0  0
  -28.5841   -1.2820  -11.1209 C   0  0  0  0  0  0  0  0  0  0  0  0
  -29.2547   -2.3051  -11.7846 C   0  0  0  0  0  0  0  0  0  0  0  0
  -29.6163   -3.4828  -11.1248 C   0  0  0  0  0  0  0  0  0  0  0  0
  -29.3724   -3.5356   -9.7486 C   0  0  0  0  0  0  0  0  0  0  0  0
  1  2  1  0
  2  3  1  0
  3  4  1  0
  4  5  1  0
  5  6  1  0
  6  7  1  0
  7  8  1  0
  8  9  1  1
  8 10  1  0
  4 11  2  0
 11 12  1  0
 12 13  2  0
 13 14  1  0
 14 15  2  0
 15 16  1  0
 16 17  2  0
 17  3  1  0
 17 12  1  0
M  END
>  <ref_mols>  (9) 
A0503a,A0759a

>  <energy_score>  (9) 
-18.184351

>  <original SMILES>  (9) 
CCn1c(CNC[C@@H](C)O)nc2ccccc21

>  <SLURM_JOB_ID>  (9) 
282121

>  <exports>  (9) 
['/opt/xchem-fragalysis-2/maxwin/BulkDock/OUTPUTS/2AZ_iter1_frags_knitwork_pure_split1000_batch000_282121.sdf']

>  <HIPPO Pose ID>  (9) 
483

>  <fragmenstein_mode>  (9) 
expansion

>  <original ID>  (9) 
YFPGSEQYEDBGPH-SNVBAGLBSA-N

>  <fragmenstein_error>  (9) 
None

>  <scratch_subdir>  (9) 
/opt/xchem-fragalysis-2/maxwin/BulkDock/SCRATCH/282121/C421-P5

>  <csv_name>  (9) 
2AZ_iter1_frags_knitwork_pure_split1000_batch000.csv

>  <SLURM_JOB_NAME>  (9) 
BulkDock.place:A71EV2AZ:2AZ_iter1_frags_knitwork_pure_split1000_batch000

>  <HIPPO Compound ID>  (9) 
421

>  <inchikey>  (9) 
YFPGSEQYEDBGPH-SNVBAGLBSA-N

>  <ref_pdb>  (9) 
A0503a

>  <alias>  (9) 
None

>  <distance_score>  (9) 
0.968391

>  <name>  (9) 
YFPGSEQYEDBGPH-SNVBAGLBSA-N

>  <fragmenstein_outcome>  (9) 
acceptable

>  <tags>  (9) 
['Fragmenstein placed']

>  <fragmenstein_runtime>  (9) 
0.890331

$$$$
484
     RDKit          3D

 17 18  0  0  0  0  0  0  0  0999 V2000
  -31.5118   -6.1042   -8.8153 C   0  0  0  0  0  0  0  0  0  0  0  0
  -30.0202   -5.8504   -8.8255 C   0  0  0  0  0  0  0  0  0  0  0  0
  -29.6964   -4.4427   -8.7396 N   0  0  0  0  0  0  0  0  0  0  0  0
  -29.5623   -3.6845   -7.5929 C   0  0  0  0  0  0  0  0  0  0  0  0
  -30.0957   -4.1018   -6.2417 C   0  0  0  0  0  0  0  0  0  0  0  0
  -31.4109   -3.4911   -5.9481 N   0  0  0  0  0  0  0  0  0  0  0  0
  -32.2079   -4.2867   -5.0041 C   0  0  0  0  0  0  0  0  0  0  0  0
  -33.4838   -3.5434   -4.5489 C   0  0  1  0  0  0  0  0  0  0  0  0
  -34.2572   -4.3334   -3.5024 C   0  0  0  0  0  0  0  0  0  0  0  0
  -33.1447   -2.2721   -3.9802 O   0  0  0  0  0  0  0  0  0  0  0  0
  -28.9641   -2.5404   -7.8844 N   0  0  0  0  0  0  0  0  0  0  0  0
  -28.9567   -2.4685   -9.2593 C   0  0  0  0  0  0  0  0  0  0  0  0
  -28.5503   -1.4343  -10.1088 C   0  0  0  0  0  0  0  0  0  0  0  0
  -28.7628   -1.5573  -11.4844 C   0  0  0  0  0  0  0  0  0  0  0  0
  -29.3638   -2.6944  -12.0117 C   0  0  0  0  0  0  0  0  0  0  0  0
  -29.7003   -3.7751  -11.1946 C   0  0  0  0  0  0  0  0  0  0  0  0
  -29.4824   -3.6240   -9.8203 C   0  0  0  0  0  0  0  0  0  0  0  0
  1  2  1  0
  2  3  1  0
  3  4  1  0
  4  5  1  0
  5  6  1  0
  6  7  1  0
  7  8  1  0
  8  9  1  1
  8 10  1  0
  4 11  2  0
 11 12  1  0
 12 13  2  0
 13 14  1  0
 14 15  2  0
 15 16  1  0
 16 17  2  0
 17  3  1  0
 17 12  1  0
M  END
>  <ref_mols>  (10) 
A0503a,A0759a

>  <energy_score>  (10) 
-19.916508

>  <original SMILES>  (10) 
CCn1c(CNC[C@@H](C)O)nc2ccccc21

>  <SLURM_JOB_ID>  (10) 
282121

>  <exports>  (10) 
['/opt/xchem-fragalysis-2/maxwin/BulkDock/OUTPUTS/2AZ_iter1_frags_knitwork_pure_split1000_batch000_282121.sdf']

>  <HIPPO Pose ID>  (10) 
484

>  <fragmenstein_mode>  (10) 
expansion

>  <original ID>  (10) 
YFPGSEQYEDBGPH-SNVBAGLBSA-N

>  <fragmenstein_error>  (10) 
None

>  <scratch_subdir>  (10) 
/opt/xchem-fragalysis-2/maxwin/BulkDock/SCRATCH/282121/C421-P6

>  <csv_name>  (10) 
2AZ_iter1_frags_knitwork_pure_split1000_batch000.csv

>  <SLURM_JOB_NAME>  (10) 
BulkDock.place:A71EV2AZ:2AZ_iter1_frags_knitwork_pure_split1000_batch000

>  <HIPPO Compound ID>  (10) 
421

>  <inchikey>  (10) 
YFPGSEQYEDBGPH-SNVBAGLBSA-N

>  <ref_pdb>  (10) 
A0759a

>  <alias>  (10) 
None

>  <distance_score>  (10) 
0.973448

>  <name>  (10) 
YFPGSEQYEDBGPH-SNVBAGLBSA-N

>  <fragmenstein_outcome>  (10) 
acceptable

>  <tags>  (10) 
['Fragmenstein placed']

>  <fragmenstein_runtime>  (10) 
1.125936

$$$$
