ver_1.2
     RDKit          3D

 19 20  0  0  0  0  0  0  0  0999 V2000
   -4.6003   -1.7234    1.6547 C   0  0  0  0  0  0  0  0  0  0  0  0
   -3.7440   -0.9791    0.6407 C   0  0  0  0  0  0  0  0  0  0  0  0
   -4.3403    0.4280    0.5742 C   0  0  0  0  0  0  0  0  0  0  0  0
   -3.8656   -1.6067   -0.7058 C   0  0  0  0  0  0  0  0  0  0  0  0
   -2.3537   -0.8550    1.1707 C   0  0  0  0  0  0  0  0  0  0  0  0
   -1.3996   -0.1452    0.2801 C   0  0  0  0  0  0  0  0  0  0  0  0
   -1.7063    1.2468   -0.0814 C   0  0  0  0  0  0  0  0  0  0  0  0
   -2.4620    1.4637   -1.2018 O   0  0  0  0  0  0  0  0  0  0  0  0
   -0.6848   -0.9479   -0.6351 N   0  0  0  0  0  0  0  0  0  0  0  0
    0.2366   -0.2852   -1.5013 C   0  0  0  0  0  0  0  0  0  0  0  0
    1.3203    0.4464   -0.8316 C   0  0  0  0  0  0  0  0  0  0  0  0
    1.2215    1.8348   -0.7750 C   0  0  0  0  0  0  0  0  0  0  0  0
    2.2419    2.5079   -0.1460 C   0  0  0  0  0  0  0  0  0  0  0  0
    3.3324    1.8886    0.4177 C   0  0  0  0  0  0  0  0  0  0  0  0
    3.4070    0.5019    0.3477 C   0  0  0  0  0  0  0  0  0  0  0  0
    4.3314   -0.3745    0.7970 N   0  0  0  0  0  0  0  0  0  0  0  0
    3.9329   -1.6330    0.4709 C   0  0  0  0  0  0  0  0  0  0  0  0
    2.7336   -1.5460   -0.1971 C   0  0  0  0  0  0  0  0  0  0  0  0
    2.3988   -0.2222   -0.2785 C   0  0  0  0  0  0  0  0  0  0  0  0
  1  2  1  0
  2  3  1  0
  2  4  1  0
  2  5  1  0
  5  6  1  0
  6  7  1  0
  7  8  1  0
  6  9  1  0
  9 10  1  0
 10 11  1  0
 11 12  2  0
 12 13  1  0
 13 14  2  0
 14 15  1  0
 15 16  1  0
 16 17  1  0
 17 18  2  0
 18 19  1  0
 19 11  1  0
 19 15  2  0
M  END
>  <ref_url>  (1) 
https://github.com/mwinokan/BulkDock

>  <submitter_name>  (1) 
Max Winokan

>  <submitter_email>  (1) 
max.winokan@diamond.ac.uk

>  <submitter_institution>  (1) 
DLS

>  <generation_date>  (1) 
2025-02-10

>  <method>  (1) 
iter1_frags_knitwork_impure

>  <SLURM_JOB_ID>  (1) 
SLURM_JOB_ID

>  <SLURM_JOB_NAME>  (1) 
SLURM_JOB_NAME

>  <csv_name>  (1) 
csv_name

>  <scratch_subdir>  (1) 
scratch_subdir

>  <fragmenstein_runtime>  (1) 
fragmenstein_runtime

>  <fragmenstein_outcome>  (1) 
fragmenstein_outcome

>  <fragmenstein_mode>  (1) 
fragmenstein_mode

>  <fragmenstein_error>  (1) 
fragmenstein_error

>  <exports>  (1) 
exports

>  <HIPPO Pose ID>  (1) 
HIPPO Pose ID

>  <HIPPO Compound ID>  (1) 
HIPPO Compound ID

>  <smiles>  (1) 
smiles

>  <ref_pdb>  (1) 
protein reference

>  <ref_mols>  (1) 
fragment inspirations

>  <original ID>  (1) 
original ID

>  <compound inchikey>  (1) 
compound inchikey

$$$$
118
     RDKit          3D

 19 20  0  0  0  0  0  0  0  0999 V2000
  -33.0480   -3.3087   -2.7717 C   0  0  0  0  0  0  0  0  0  0  0  0
  -33.4052   -4.5079   -3.6593 C   0  0  0  0  0  0  0  0  0  0  0  0
  -33.1146   -4.1692   -5.1361 C   0  0  0  0  0  0  0  0  0  0  0  0
  -32.5075   -5.6985   -3.2816 C   0  0  0  0  0  0  0  0  0  0  0  0
  -34.9200   -4.8454   -3.5452 C   0  0  0  0  0  0  0  0  0  0  0  0
  -35.5428   -5.0224   -2.1352 C   0  0  1  0  0  0  0  0  0  0  0  0
  -37.0860   -5.1091   -2.2711 C   0  0  0  0  0  0  0  0  0  0  0  0
  -37.4567   -6.3180   -2.9359 O   0  0  0  0  0  0  0  0  0  0  0  0
  -35.0064   -6.2457   -1.5122 N   0  0  0  0  0  0  0  0  0  0  0  0
  -35.2281   -6.3176   -0.0638 C   0  0  0  0  0  0  0  0  0  0  0  0
  -34.3718   -5.3465    0.7185 C   0  0  0  0  0  0  0  0  0  0  0  0
  -32.9814   -5.5815    0.8087 C   0  0  0  0  0  0  0  0  0  0  0  0
  -32.1317   -4.7176    1.4956 C   0  0  0  0  0  0  0  0  0  0  0  0
  -32.6296   -3.5757    2.1200 C   0  0  0  0  0  0  0  0  0  0  0  0
  -34.0041   -3.3353    2.0282 C   0  0  0  0  0  0  0  0  0  0  0  0
  -34.7453   -2.2848    2.5221 N   0  0  0  0  0  0  0  0  0  0  0  0
  -36.0668   -2.4480    2.2052 C   0  0  0  0  0  0  0  0  0  0  0  0
  -36.1840   -3.6172    1.4906 C   0  0  0  0  0  0  0  0  0  0  0  0
  -34.8828   -4.1879    1.3572 C   0  0  0  0  0  0  0  0  0  0  0  0
  1  2  1  0
  2  3  1  0
  2  4  1  0
  2  5  1  0
  6  5  1  6
  6  7  1  0
  7  8  1  0
  6  9  1  0
  9 10  1  0
 10 11  1  0
 11 12  2  0
 12 13  1  0
 13 14  2  0
 14 15  1  0
 15 16  1  0
 16 17  1  0
 17 18  2  0
 18 19  1  0
 19 11  1  0
 19 15  2  0
M  END
>  <SLURM_JOB_NAME>  (1) 
BulkDock.place:A71EV2AZ:2AZ_iter1_frags_knitwork_impure_split1000_batch000

>  <SLURM_JOB_ID>  (1) 
282123

>  <distance_score>  (1) 
0.87895

>  <alias>  (1) 
None

>  <fragmenstein_error>  (1) 
None

>  <scratch_subdir>  (1) 
/opt/xchem-fragalysis-2/maxwin/BulkDock/SCRATCH/282123/C490-P1

>  <energy_score>  (1) 
-42.283847

>  <HIPPO Pose ID>  (1) 
118

>  <ref_mols>  (1) 
A0229a,A0759a

>  <inchikey>  (1) 
WPONJNSGUOJHFG-ZDUSSCGKSA-N

>  <name>  (1) 
WPONJNSGUOJHFG-ZDUSSCGKSA-N

>  <csv_name>  (1) 
2AZ_iter1_frags_knitwork_impure_split1000_batch000.csv

>  <fragmenstein_mode>  (1) 
expansion

>  <exports>  (1) 
['/opt/xchem-fragalysis-2/maxwin/BulkDock/OUTPUTS/2AZ_iter1_frags_knitwork_impure_split1000_batch000_282123.sdf', '/opt/xchem-fragalysis-2/maxwin/BulkDock/OUTPUTS/2AZ_iter1_frags_knitwork_impure_split1000_batch000_282123_fragalysis.sdf']

>  <HIPPO Compound ID>  (1) 
490

>  <original SMILES>  (1) 
CC(C)(C)C[C@@H](CO)NCc1cccc2[nH]ccc12

>  <fragmenstein_runtime>  (1) 
7.403996

>  <ref_pdb>  (1) 
A0229a

>  <original ID>  (1) 
WPONJNSGUOJHFG-ZDUSSCGKSA-N

>  <tags>  (1) 
['Fragmenstein placed']

>  <fragmenstein_outcome>  (1) 
acceptable

$$$$
159
     RDKit          3D

 22 25  0  0  0  0  0  0  0  0999 V2000
  -29.8010   -6.4295  -10.2572 O   0  0  0  0  0  0  0  0  0  0  0  0
  -29.5792   -5.8188   -9.2870 C   0  0  0  0  0  0  0  0  0  0  0  0
  -29.8373   -6.3463   -7.8906 C   0  0  0  0  0  0  0  0  0  0  0  0
  -31.2226   -5.8639   -7.4624 C   0  0  0  0  0  0  0  0  0  0  0  0
  -32.2695   -6.6751   -8.1292 C   0  0  0  0  0  0  0  0  0  0  0  0
  -32.8856   -6.5151   -9.2746 N   0  0  0  0  0  0  0  0  0  0  0  0
  -33.6154   -7.6669   -9.3778 C   0  0  0  0  0  0  0  0  0  0  0  0
  -34.5369   -7.9619  -10.5909 C   0  0  0  0  0  0  0  0  0  0  0  0
  -34.0584   -8.9091  -11.6611 C   0  0  0  0  0  0  0  0  0  0  0  0
  -34.1536   -7.4396  -11.9529 C   0  0  0  0  0  0  0  0  0  0  0  0
  -33.5006   -8.5054   -8.3398 N   0  0  0  0  0  0  0  0  0  0  0  0
  -32.5990   -7.8466   -7.5029 O   0  0  0  0  0  0  0  0  0  0  0  0
  -29.0942   -4.3518   -9.1085 N   0  0  0  0  0  0  0  0  0  0  0  0
  -28.8846   -3.3533  -10.0462 C   0  0  0  0  0  0  0  0  0  0  0  0
  -27.9915   -2.3357   -9.6806 C   0  0  0  0  0  0  0  0  0  0  0  0
  -27.7237   -1.2871  -10.5463 C   0  0  0  0  0  0  0  0  0  0  0  0
  -28.3716   -1.1909  -11.7705 C   0  0  0  0  0  0  0  0  0  0  0  0
  -29.3129   -2.1670  -12.0938 C   0  0  0  0  0  0  0  0  0  0  0  0
  -30.1167   -2.2533  -13.2060 N   0  0  0  0  0  0  0  0  0  0  0  0
  -30.9683   -3.3156  -13.0819 C   0  0  0  0  0  0  0  0  0  0  0  0
  -30.6634   -3.9583  -11.9015 C   0  0  0  0  0  0  0  0  0  0  0  0
  -29.5938   -3.2556  -11.2674 C   0  0  0  0  0  0  0  0  0  0  0  0
  1  2  2  0
  2  3  1  0
  3  4  1  0
  4  5  1  0
  5  6  2  0
  6  7  1  0
  7  8  1  0
  8  9  1  0
  9 10  1  0
  7 11  2  0
 11 12  1  0
  2 13  1  0
 13 14  1  0
 14 15  2  0
 15 16  1  0
 16 17  2  0
 17 18  1  0
 18 19  1  0
 19 20  1  0
 20 21  2  0
 21 22  1  0
 12  5  1  0
 22 14  1  0
 10  8  1  0
 22 18  2  0
M  END
>  <SLURM_JOB_NAME>  (2) 
BulkDock.place:A71EV2AZ:2AZ_iter1_frags_knitwork_impure_split1000_batch000

>  <SLURM_JOB_ID>  (2) 
282123

>  <distance_score>  (2) 
0.997197

>  <alias>  (2) 
None

>  <fragmenstein_error>  (2) 
None

>  <scratch_subdir>  (2) 
/opt/xchem-fragalysis-2/maxwin/BulkDock/SCRATCH/282123/C527-P1

>  <energy_score>  (2) 
-21.400604

>  <HIPPO Pose ID>  (2) 
159

>  <ref_mols>  (2) 
A0229a,A0503a

>  <inchikey>  (2) 
CAPSERZENVTUQF-UHFFFAOYSA-N

>  <name>  (2) 
CAPSERZENVTUQF-UHFFFAOYSA-N

>  <csv_name>  (2) 
2AZ_iter1_frags_knitwork_impure_split1000_batch000.csv

>  <fragmenstein_mode>  (2) 
expansion

>  <exports>  (2) 
['/opt/xchem-fragalysis-2/maxwin/BulkDock/OUTPUTS/2AZ_iter1_frags_knitwork_impure_split1000_batch000_282123.sdf', '/opt/xchem-fragalysis-2/maxwin/BulkDock/OUTPUTS/2AZ_iter1_frags_knitwork_impure_split1000_batch000_282123_fragalysis.sdf']

>  <HIPPO Compound ID>  (2) 
527

>  <original SMILES>  (2) 
O=C(CCc1nc(C2CC2)no1)Nc1cccc2[nH]ccc12

>  <fragmenstein_runtime>  (2) 
3.076874

>  <ref_pdb>  (2) 
A0229a

>  <original ID>  (2) 
CAPSERZENVTUQF-UHFFFAOYSA-N

>  <tags>  (2) 
['Fragmenstein placed']

>  <fragmenstein_outcome>  (2) 
acceptable

$$$$
160
     RDKit          3D

 22 25  0  0  0  0  0  0  0  0999 V2000
  -31.2506   -6.0366  -10.1716 O   0  0  0  0  0  0  0  0  0  0  0  0
  -30.7637   -5.5909   -9.2078 C   0  0  0  0  0  0  0  0  0  0  0  0
  -31.0727   -6.0920   -7.8130 C   0  0  0  0  0  0  0  0  0  0  0  0
  -31.9583   -5.0768   -7.0949 C   0  0  0  0  0  0  0  0  0  0  0  0
  -33.2903   -4.9358   -7.7275 C   0  0  0  0  0  0  0  0  0  0  0  0
  -33.7962   -3.9390   -8.4119 N   0  0  0  0  0  0  0  0  0  0  0  0
  -35.0547   -4.4001   -8.6951 C   0  0  0  0  0  0  0  0  0  0  0  0
  -36.0654   -3.5708   -9.5325 C   0  0  0  0  0  0  0  0  0  0  0  0
  -36.8599   -4.2381  -10.6268 C   0  0  0  0  0  0  0  0  0  0  0  0
  -35.7510   -3.2919  -10.9813 C   0  0  0  0  0  0  0  0  0  0  0  0
  -35.3503   -5.5996   -8.1790 N   0  0  0  0  0  0  0  0  0  0  0  0
  -34.1665   -5.9659   -7.5371 O   0  0  0  0  0  0  0  0  0  0  0  0
  -29.8090   -4.3736   -9.0301 N   0  0  0  0  0  0  0  0  0  0  0  0
  -29.3549   -3.4380   -9.9564 C   0  0  0  0  0  0  0  0  0  0  0  0
  -28.3118   -2.6051   -9.5023 C   0  0  0  0  0  0  0  0  0  0  0  0
  -27.8459   -1.5435  -10.2657 C   0  0  0  0  0  0  0  0  0  0  0  0
  -28.4164   -1.2568  -11.4967 C   0  0  0  0  0  0  0  0  0  0  0  0
  -29.4515   -2.0817  -11.9387 C   0  0  0  0  0  0  0  0  0  0  0  0
  -30.1823   -1.9783  -13.0969 N   0  0  0  0  0  0  0  0  0  0  0  0
  -31.1447   -2.9407  -13.1431 C   0  0  0  0  0  0  0  0  0  0  0  0
  -31.0170   -3.6944  -11.9985 C   0  0  0  0  0  0  0  0  0  0  0  0
  -29.9369   -3.1771  -11.2194 C   0  0  0  0  0  0  0  0  0  0  0  0
  1  2  2  0
  2  3  1  0
  3  4  1  0
  4  5  1  0
  5  6  2  0
  6  7  1  0
  7  8  1  0
  8  9  1  0
  9 10  1  0
  7 11  2  0
 11 12  1  0
  2 13  1  0
 13 14  1  0
 14 15  2  0
 15 16  1  0
 16 17  2  0
 17 18  1  0
 18 19  1  0
 19 20  1  0
 20 21  2  0
 21 22  1  0
 12  5  1  0
 22 14  1  0
 10  8  1  0
 22 18  2  0
M  END
>  <SLURM_JOB_NAME>  (3) 
BulkDock.place:A71EV2AZ:2AZ_iter1_frags_knitwork_impure_split1000_batch000

>  <SLURM_JOB_ID>  (3) 
282123

>  <distance_score>  (3) 
0.798222

>  <alias>  (3) 
None

>  <fragmenstein_error>  (3) 
None

>  <scratch_subdir>  (3) 
/opt/xchem-fragalysis-2/maxwin/BulkDock/SCRATCH/282123/C527-P5

>  <energy_score>  (3) 
-23.130742

>  <HIPPO Pose ID>  (3) 
160

>  <ref_mols>  (3) 
A0229a,A0503a

>  <inchikey>  (3) 
CAPSERZENVTUQF-UHFFFAOYSA-N

>  <name>  (3) 
CAPSERZENVTUQF-UHFFFAOYSA-N

>  <csv_name>  (3) 
2AZ_iter1_frags_knitwork_impure_split1000_batch000.csv

>  <fragmenstein_mode>  (3) 
expansion

>  <exports>  (3) 
['/opt/xchem-fragalysis-2/maxwin/BulkDock/OUTPUTS/2AZ_iter1_frags_knitwork_impure_split1000_batch000_282123.sdf', '/opt/xchem-fragalysis-2/maxwin/BulkDock/OUTPUTS/2AZ_iter1_frags_knitwork_impure_split1000_batch000_282123_fragalysis.sdf']

>  <HIPPO Compound ID>  (3) 
527

>  <original SMILES>  (3) 
O=C(CCc1nc(C2CC2)no1)Nc1cccc2[nH]ccc12

>  <fragmenstein_runtime>  (3) 
1.860931

>  <ref_pdb>  (3) 
A0503a

>  <original ID>  (3) 
CAPSERZENVTUQF-UHFFFAOYSA-N

>  <tags>  (3) 
['Fragmenstein placed']

>  <fragmenstein_outcome>  (3) 
acceptable

$$$$
216
     RDKit          3D

 20 22  0  0  0  0  0  0  0  0999 V2000
  -31.0075   -6.1900  -10.3131 O   0  0  0  0  0  0  0  0  0  0  0  0
  -30.6137   -5.7243   -9.3160 C   0  0  0  0  0  0  0  0  0  0  0  0
  -30.9740   -6.2712   -7.9478 C   0  0  0  0  0  0  0  0  0  0  0  0
  -31.8909   -5.3049   -7.1875 C   0  0  0  0  0  0  0  0  0  0  0  0
  -33.2391   -4.9657   -7.7830 C   0  0  0  0  0  0  0  0  0  0  0  0
  -33.8524   -5.7111   -8.7977 C   0  0  0  0  0  0  0  0  0  0  0  0
  -35.1166   -5.3605   -9.2814 C   0  0  0  0  0  0  0  0  0  0  0  0
  -35.7967   -4.2715   -8.7449 C   0  0  0  0  0  0  0  0  0  0  0  0
  -35.2152   -3.5364   -7.7181 C   0  0  0  0  0  0  0  0  0  0  0  0
  -33.9511   -3.8857   -7.2376 C   0  0  0  0  0  0  0  0  0  0  0  0
  -29.7622   -4.4452   -9.0674 N   0  0  0  0  0  0  0  0  0  0  0  0
  -29.3215   -3.4675   -9.9533 C   0  0  0  0  0  0  0  0  0  0  0  0
  -28.3075   -2.6184   -9.4716 C   0  0  0  0  0  0  0  0  0  0  0  0
  -27.8543   -1.5397  -10.2191 C   0  0  0  0  0  0  0  0  0  0  0  0
  -28.4141   -1.2489  -11.4553 C   0  0  0  0  0  0  0  0  0  0  0  0
  -29.4352   -2.0814  -11.9146 C   0  0  0  0  0  0  0  0  0  0  0  0
  -30.1646   -1.9750  -13.0735 N   0  0  0  0  0  0  0  0  0  0  0  0
  -31.1192   -2.9456  -13.1288 C   0  0  0  0  0  0  0  0  0  0  0  0
  -30.9818   -3.7132  -11.9947 C   0  0  0  0  0  0  0  0  0  0  0  0
  -29.9046   -3.1939  -11.2129 C   0  0  0  0  0  0  0  0  0  0  0  0
  1  2  2  0
  2  3  1  0
  3  4  1  0
  4  5  1  0
  5  6  2  0
  6  7  1  0
  7  8  2  0
  8  9  1  0
  9 10  2  0
  2 11  1  0
 11 12  1  0
 12 13  2  0
 13 14  1  0
 14 15  2  0
 15 16  1  0
 16 17  1  0
 17 18  1  0
 18 19  2  0
 19 20  1  0
 10  5  1  0
 20 12  1  0
 20 16  2  0
M  END
>  <SLURM_JOB_NAME>  (4) 
BulkDock.place:A71EV2AZ:2AZ_iter1_frags_knitwork_impure_split1000_batch000

>  <SLURM_JOB_ID>  (4) 
282123

>  <distance_score>  (4) 
0.919296

>  <alias>  (4) 
None

>  <fragmenstein_error>  (4) 
None

>  <scratch_subdir>  (4) 
/opt/xchem-fragalysis-2/maxwin/BulkDock/SCRATCH/282123/C544-P5

>  <energy_score>  (4) 
-7.57565

>  <HIPPO Pose ID>  (4) 
216

>  <ref_mols>  (4) 
A0229a,A0503a

>  <inchikey>  (4) 
QNBIZZVGELSFSB-UHFFFAOYSA-N

>  <name>  (4) 
QNBIZZVGELSFSB-UHFFFAOYSA-N

>  <csv_name>  (4) 
2AZ_iter1_frags_knitwork_impure_split1000_batch000.csv

>  <fragmenstein_mode>  (4) 
expansion

>  <exports>  (4) 
['/opt/xchem-fragalysis-2/maxwin/BulkDock/OUTPUTS/2AZ_iter1_frags_knitwork_impure_split1000_batch000_282123.sdf', '/opt/xchem-fragalysis-2/maxwin/BulkDock/OUTPUTS/2AZ_iter1_frags_knitwork_impure_split1000_batch000_282123_fragalysis.sdf']

>  <HIPPO Compound ID>  (4) 
544

>  <original SMILES>  (4) 
O=C(CCc1ccccc1)Nc1cccc2[nH]ccc12

>  <fragmenstein_runtime>  (4) 
1.697153

>  <ref_pdb>  (4) 
A0503a

>  <original ID>  (4) 
QNBIZZVGELSFSB-UHFFFAOYSA-N

>  <tags>  (4) 
['Fragmenstein placed']

>  <fragmenstein_outcome>  (4) 
acceptable

$$$$
234
     RDKit          3D

 26 29  0  0  0  0  0  0  0  0999 V2000
  -31.0224   -6.0686  -10.2027 O   0  0  0  0  0  0  0  0  0  0  0  0
  -30.5805   -5.5682   -9.2435 C   0  0  0  0  0  0  0  0  0  0  0  0
  -30.9040   -6.0145   -7.8349 C   0  0  0  0  0  0  0  0  0  0  0  0
  -31.8291   -4.9521   -7.1902 C   0  0  0  0  0  0  0  0  0  0  0  0
  -31.7162   -5.0964   -5.6743 C   0  0  0  0  0  0  0  0  0  0  0  0
  -30.7807   -4.3261   -4.9633 C   0  0  0  0  0  0  0  0  0  0  0  0
  -30.6486   -4.4621   -3.5802 C   0  0  0  0  0  0  0  0  0  0  0  0
  -31.4431   -5.3753   -2.8912 C   0  0  0  0  0  0  0  0  0  0  0  0
  -32.3645   -6.1572   -3.5843 C   0  0  0  0  0  0  0  0  0  0  0  0
  -32.4966   -6.0244   -4.9675 C   0  0  0  0  0  0  0  0  0  0  0  0
  -33.2725   -4.8810   -7.6926 C   0  0  0  0  0  0  0  0  0  0  0  0
  -33.8333   -5.8000   -8.5913 C   0  0  0  0  0  0  0  0  0  0  0  0
  -35.1572   -5.6686   -9.0243 C   0  0  0  0  0  0  0  0  0  0  0  0
  -35.9474   -4.6198   -8.5644 C   0  0  0  0  0  0  0  0  0  0  0  0
  -35.4160   -3.7025   -7.6660 C   0  0  0  0  0  0  0  0  0  0  0  0
  -34.0957   -3.8363   -7.2321 C   0  0  0  0  0  0  0  0  0  0  0  0
  -29.6743   -4.3103   -9.0872 N   0  0  0  0  0  0  0  0  0  0  0  0
  -29.2275   -3.3983  -10.0338 C   0  0  0  0  0  0  0  0  0  0  0  0
  -28.1887   -2.5476   -9.6110 C   0  0  0  0  0  0  0  0  0  0  0  0
  -27.7666   -1.4839  -10.3949 C   0  0  0  0  0  0  0  0  0  0  0  0
  -28.3847   -1.2114  -11.6064 C   0  0  0  0  0  0  0  0  0  0  0  0
  -29.4211   -2.0531  -12.0111 C   0  0  0  0  0  0  0  0  0  0  0  0
  -30.1958   -1.9663  -13.1411 N   0  0  0  0  0  0  0  0  0  0  0  0
  -31.1474   -2.9401  -13.1468 C   0  0  0  0  0  0  0  0  0  0  0  0
  -30.9662   -3.6868  -12.0049 C   0  0  0  0  0  0  0  0  0  0  0  0
  -29.8597   -3.1543  -11.2747 C   0  0  0  0  0  0  0  0  0  0  0  0
  1  2  2  0
  2  3  1  0
  3  4  1  0
  4  5  1  0
  5  6  2  0
  6  7  1  0
  7  8  2  0
  8  9  1  0
  9 10  2  0
  4 11  1  0
 11 12  2  0
 12 13  1  0
 13 14  2  0
 14 15  1  0
 15 16  2  0
  2 17  1  0
 17 18  1  0
 18 19  2  0
 19 20  1  0
 20 21  2  0
 21 22  1  0
 22 23  1  0
 23 24  1  0
 24 25  2  0
 25 26  1  0
 10  5  1  0
 16 11  1  0
 26 18  1  0
 26 22  2  0
M  END
>  <SLURM_JOB_NAME>  (5) 
BulkDock.place:A71EV2AZ:2AZ_iter1_frags_knitwork_impure_split1000_batch000

>  <SLURM_JOB_ID>  (5) 
282123

>  <distance_score>  (5) 
0.848127

>  <alias>  (5) 
None

>  <fragmenstein_error>  (5) 
None

>  <scratch_subdir>  (5) 
/opt/xchem-fragalysis-2/maxwin/BulkDock/SCRATCH/282123/C554-P5

>  <energy_score>  (5) 
-3.162815

>  <HIPPO Pose ID>  (5) 
234

>  <ref_mols>  (5) 
A0229a,A0503a

>  <inchikey>  (5) 
PMMASMGHJOEHPC-UHFFFAOYSA-N

>  <name>  (5) 
PMMASMGHJOEHPC-UHFFFAOYSA-N

>  <csv_name>  (5) 
2AZ_iter1_frags_knitwork_impure_split1000_batch000.csv

>  <fragmenstein_mode>  (5) 
expansion

>  <exports>  (5) 
['/opt/xchem-fragalysis-2/maxwin/BulkDock/OUTPUTS/2AZ_iter1_frags_knitwork_impure_split1000_batch000_282123.sdf', '/opt/xchem-fragalysis-2/maxwin/BulkDock/OUTPUTS/2AZ_iter1_frags_knitwork_impure_split1000_batch000_282123_fragalysis.sdf']

>  <HIPPO Compound ID>  (5) 
554

>  <original SMILES>  (5) 
O=C(CC(c1ccccc1)c1ccccc1)Nc1cccc2[nH]ccc12

>  <fragmenstein_runtime>  (5) 
4.310808

>  <ref_pdb>  (5) 
A0503a

>  <original ID>  (5) 
PMMASMGHJOEHPC-UHFFFAOYSA-N

>  <tags>  (5) 
['Fragmenstein placed']

>  <fragmenstein_outcome>  (5) 
acceptable

$$$$
241
     RDKit          3D

 24 26  0  0  0  0  0  0  0  0999 V2000
  -31.0303   -6.1842  -10.3194 O   0  0  0  0  0  0  0  0  0  0  0  0
  -30.6327   -5.7244   -9.3211 C   0  0  0  0  0  0  0  0  0  0  0  0
  -30.9960   -6.2759   -7.9557 C   0  0  0  0  0  0  0  0  0  0  0  0
  -31.9063   -5.3073   -7.1898 C   0  0  0  0  0  0  0  0  0  0  0  0
  -33.2477   -4.9430   -7.7882 C   0  0  0  0  0  0  0  0  0  0  0  0
  -33.9510   -3.8669   -7.2270 C   0  0  0  0  0  0  0  0  0  0  0  0
  -35.2057   -3.4883   -7.7135 C   0  0  0  0  0  0  0  0  0  0  0  0
  -35.8014   -4.1904   -8.7665 C   0  0  0  0  0  0  0  0  0  0  0  0
  -37.1353   -3.7607   -9.3200 C   0  0  0  0  0  0  0  0  0  0  0  0
  -37.9581   -3.2195   -8.3765 F   0  0  0  0  0  0  0  0  0  0  0  0
  -37.0214   -2.8215  -10.2992 F   0  0  0  0  0  0  0  0  0  0  0  0
  -37.8425   -4.7886   -9.8717 F   0  0  0  0  0  0  0  0  0  0  0  0
  -35.1127   -5.2780   -9.3174 C   0  0  0  0  0  0  0  0  0  0  0  0
  -33.8591   -5.6575   -8.8243 C   0  0  0  0  0  0  0  0  0  0  0  0
  -29.7739   -4.4515   -9.0689 N   0  0  0  0  0  0  0  0  0  0  0  0
  -29.3285   -3.4729   -9.9518 C   0  0  0  0  0  0  0  0  0  0  0  0
  -28.3136   -2.6272   -9.4655 C   0  0  0  0  0  0  0  0  0  0  0  0
  -27.8568   -1.5470  -10.2088 C   0  0  0  0  0  0  0  0  0  0  0  0
  -28.4130   -1.2516  -11.4454 C   0  0  0  0  0  0  0  0  0  0  0  0
  -29.4343   -2.0811  -11.9098 C   0  0  0  0  0  0  0  0  0  0  0  0
  -30.1599   -1.9703  -13.0707 N   0  0  0  0  0  0  0  0  0  0  0  0
  -31.1162   -2.9390  -13.1313 C   0  0  0  0  0  0  0  0  0  0  0  0
  -30.9828   -3.7105  -11.9994 C   0  0  0  0  0  0  0  0  0  0  0  0
  -29.9077   -3.1948  -11.2123 C   0  0  0  0  0  0  0  0  0  0  0  0
  1  2  2  0
  2  3  1  0
  3  4  1  0
  4  5  1  0
  5  6  2  0
  6  7  1  0
  7  8  2  0
  8  9  1  0
  9 10  1  0
  9 11  1  0
  9 12  1  0
  8 13  1  0
 13 14  2  0
  2 15  1  0
 15 16  1  0
 16 17  2  0
 17 18  1  0
 18 19  2  0
 19 20  1  0
 20 21  1  0
 21 22  1  0
 22 23  2  0
 23 24  1  0
 14  5  1  0
 24 16  1  0
 24 20  2  0
M  END
>  <SLURM_JOB_NAME>  (6) 
BulkDock.place:A71EV2AZ:2AZ_iter1_frags_knitwork_impure_split1000_batch000

>  <SLURM_JOB_ID>  (6) 
282123

>  <distance_score>  (6) 
0.923759

>  <alias>  (6) 
None

>  <fragmenstein_error>  (6) 
None

>  <scratch_subdir>  (6) 
/opt/xchem-fragalysis-2/maxwin/BulkDock/SCRATCH/282123/C557-P5

>  <energy_score>  (6) 
-18.139946

>  <HIPPO Pose ID>  (6) 
241

>  <ref_mols>  (6) 
A0229a,A0503a

>  <inchikey>  (6) 
ARJSJXMCVUHJCD-UHFFFAOYSA-N

>  <name>  (6) 
ARJSJXMCVUHJCD-UHFFFAOYSA-N

>  <csv_name>  (6) 
2AZ_iter1_frags_knitwork_impure_split1000_batch000.csv

>  <fragmenstein_mode>  (6) 
expansion

>  <exports>  (6) 
['/opt/xchem-fragalysis-2/maxwin/BulkDock/OUTPUTS/2AZ_iter1_frags_knitwork_impure_split1000_batch000_282123.sdf', '/opt/xchem-fragalysis-2/maxwin/BulkDock/OUTPUTS/2AZ_iter1_frags_knitwork_impure_split1000_batch000_282123_fragalysis.sdf']

>  <HIPPO Compound ID>  (6) 
557

>  <original SMILES>  (6) 
O=C(CCc1ccc(C(F)(F)F)cc1)Nc1cccc2[nH]ccc12

>  <fragmenstein_runtime>  (6) 
1.417882

>  <ref_pdb>  (6) 
A0503a

>  <original ID>  (6) 
ARJSJXMCVUHJCD-UHFFFAOYSA-N

>  <tags>  (6) 
['Fragmenstein placed']

>  <fragmenstein_outcome>  (6) 
acceptable

$$$$
246
     RDKit          3D

 21 23  0  0  0  0  0  0  0  0999 V2000
  -31.0329   -6.1807  -10.3061 O   0  0  0  0  0  0  0  0  0  0  0  0
  -30.6236   -5.7230   -9.3119 C   0  0  0  0  0  0  0  0  0  0  0  0
  -30.9707   -6.2742   -7.9429 C   0  0  0  0  0  0  0  0  0  0  0  0
  -31.8939   -5.3120   -7.1854 C   0  0  0  0  0  0  0  0  0  0  0  0
  -33.2458   -4.9909   -7.7834 C   0  0  0  0  0  0  0  0  0  0  0  0
  -33.9526   -3.8871   -7.2758 C   0  0  0  0  0  0  0  0  0  0  0  0
  -35.2235   -3.5542   -7.7551 C   0  0  0  0  0  0  0  0  0  0  0  0
  -35.8188   -4.3340   -8.7400 C   0  0  0  0  0  0  0  0  0  0  0  0
  -35.1401   -5.4416   -9.2288 C   0  0  0  0  0  0  0  0  0  0  0  0
  -35.7213   -6.2076  -10.1623 F   0  0  0  0  0  0  0  0  0  0  0  0
  -33.8719   -5.7788   -8.7580 C   0  0  0  0  0  0  0  0  0  0  0  0
  -29.7604   -4.4513   -9.0675 N   0  0  0  0  0  0  0  0  0  0  0  0
  -29.3237   -3.4718   -9.9541 C   0  0  0  0  0  0  0  0  0  0  0  0
  -28.3081   -2.6236   -9.4730 C   0  0  0  0  0  0  0  0  0  0  0  0
  -27.8560   -1.5432  -10.2188 C   0  0  0  0  0  0  0  0  0  0  0  0
  -28.4176   -1.2504  -11.4534 C   0  0  0  0  0  0  0  0  0  0  0  0
  -29.4389   -2.0825  -11.9131 C   0  0  0  0  0  0  0  0  0  0  0  0
  -30.1676   -1.9749  -13.0724 N   0  0  0  0  0  0  0  0  0  0  0  0
  -31.1214   -2.9459  -13.1295 C   0  0  0  0  0  0  0  0  0  0  0  0
  -30.9837   -3.7154  -11.9967 C   0  0  0  0  0  0  0  0  0  0  0  0
  -29.9081   -3.1962  -11.2127 C   0  0  0  0  0  0  0  0  0  0  0  0
  1  2  2  0
  2  3  1  0
  3  4  1  0
  4  5  1  0
  5  6  2  0
  6  7  1  0
  7  8  2  0
  8  9  1  0
  9 10  1  0
  9 11  2  0
  2 12  1  0
 12 13  1  0
 13 14  2  0
 14 15  1  0
 15 16  2  0
 16 17  1  0
 17 18  1  0
 18 19  1  0
 19 20  2  0
 20 21  1  0
 11  5  1  0
 21 13  1  0
 21 17  2  0
M  END
>  <SLURM_JOB_NAME>  (7) 
BulkDock.place:A71EV2AZ:2AZ_iter1_frags_knitwork_impure_split1000_batch000

>  <SLURM_JOB_ID>  (7) 
282123

>  <distance_score>  (7) 
0.921708

>  <alias>  (7) 
None

>  <fragmenstein_error>  (7) 
None

>  <scratch_subdir>  (7) 
/opt/xchem-fragalysis-2/maxwin/BulkDock/SCRATCH/282123/C560-P5

>  <energy_score>  (7) 
-14.043489

>  <HIPPO Pose ID>  (7) 
246

>  <ref_mols>  (7) 
A0229a,A0503a

>  <inchikey>  (7) 
KKJOIKXBQAKLKM-UHFFFAOYSA-N

>  <name>  (7) 
KKJOIKXBQAKLKM-UHFFFAOYSA-N

>  <csv_name>  (7) 
2AZ_iter1_frags_knitwork_impure_split1000_batch000.csv

>  <fragmenstein_mode>  (7) 
expansion

>  <exports>  (7) 
['/opt/xchem-fragalysis-2/maxwin/BulkDock/OUTPUTS/2AZ_iter1_frags_knitwork_impure_split1000_batch000_282123.sdf', '/opt/xchem-fragalysis-2/maxwin/BulkDock/OUTPUTS/2AZ_iter1_frags_knitwork_impure_split1000_batch000_282123_fragalysis.sdf']

>  <HIPPO Compound ID>  (7) 
560

>  <original SMILES>  (7) 
O=C(CCc1cccc(F)c1)Nc1cccc2[nH]ccc12

>  <fragmenstein_runtime>  (7) 
2.15493

>  <ref_pdb>  (7) 
A0503a

>  <original ID>  (7) 
KKJOIKXBQAKLKM-UHFFFAOYSA-N

>  <tags>  (7) 
['Fragmenstein placed']

>  <fragmenstein_outcome>  (7) 
acceptable

$$$$
253
     RDKit          3D

 23 25  0  0  0  0  0  0  0  0999 V2000
  -31.0231   -6.1696  -10.2819 O   0  0  0  0  0  0  0  0  0  0  0  0
  -30.6320   -5.6941   -9.2886 C   0  0  0  0  0  0  0  0  0  0  0  0
  -31.0020   -6.2224   -7.9161 C   0  0  0  0  0  0  0  0  0  0  0  0
  -31.9372   -5.2482   -7.1880 C   0  0  0  0  0  0  0  0  0  0  0  0
  -33.2884   -4.9452   -7.8000 C   0  0  0  0  0  0  0  0  0  0  0  0
  -33.8757   -5.7166   -8.8110 C   0  0  0  0  0  0  0  0  0  0  0  0
  -35.1456   -5.4033   -9.3111 C   0  0  0  0  0  0  0  0  0  0  0  0
  -35.8615   -4.3217   -8.7921 C   0  0  0  0  0  0  0  0  0  0  0  0
  -37.2111   -3.9586   -9.2866 C   0  0  0  0  0  0  0  0  0  0  0  0
  -37.9230   -3.0737   -8.8484 O   0  0  0  0  0  0  0  0  0  0  0  0
  -37.6179   -4.7290  -10.3122 O   0  0  0  0  0  0  0  0  0  0  0  0
  -35.2985   -3.5590   -7.7673 C   0  0  0  0  0  0  0  0  0  0  0  0
  -34.0282   -3.8738   -7.2741 C   0  0  0  0  0  0  0  0  0  0  0  0
  -29.7754   -4.4169   -9.0509 N   0  0  0  0  0  0  0  0  0  0  0  0
  -29.3252   -3.4521   -9.9460 C   0  0  0  0  0  0  0  0  0  0  0  0
  -28.3079   -2.6039   -9.4698 C   0  0  0  0  0  0  0  0  0  0  0  0
  -27.8510   -1.5322  -10.2248 C   0  0  0  0  0  0  0  0  0  0  0  0
  -28.4108   -1.2466  -11.4621 C   0  0  0  0  0  0  0  0  0  0  0  0
  -29.4338   -2.0792  -11.9167 C   0  0  0  0  0  0  0  0  0  0  0  0
  -30.1636   -1.9768  -13.0757 N   0  0  0  0  0  0  0  0  0  0  0  0
  -31.1185   -2.9474  -13.1270 C   0  0  0  0  0  0  0  0  0  0  0  0
  -30.9819   -3.7099  -11.9893 C   0  0  0  0  0  0  0  0  0  0  0  0
  -29.9056   -3.1868  -11.2087 C   0  0  0  0  0  0  0  0  0  0  0  0
  1  2  2  0
  2  3  1  0
  3  4  1  0
  4  5  1  0
  5  6  2  0
  6  7  1  0
  7  8  2  0
  8  9  1  0
  9 10  2  0
  9 11  1  0
  8 12  1  0
 12 13  2  0
  2 14  1  0
 14 15  1  0
 15 16  2  0
 16 17  1  0
 17 18  2  0
 18 19  1  0
 19 20  1  0
 20 21  1  0
 21 22  2  0
 22 23  1  0
 13  5  1  0
 23 15  1  0
 23 19  2  0
M  END
>  <SLURM_JOB_NAME>  (8) 
BulkDock.place:A71EV2AZ:2AZ_iter1_frags_knitwork_impure_split1000_batch000

>  <SLURM_JOB_ID>  (8) 
282123

>  <distance_score>  (8) 
0.915232

>  <alias>  (8) 
None

>  <fragmenstein_error>  (8) 
None

>  <scratch_subdir>  (8) 
/opt/xchem-fragalysis-2/maxwin/BulkDock/SCRATCH/282123/C563-P5

>  <energy_score>  (8) 
-29.873836

>  <HIPPO Pose ID>  (8) 
253

>  <ref_mols>  (8) 
A0229a,A0503a

>  <inchikey>  (8) 
PTLXUSOYQHDDKB-UHFFFAOYSA-N

>  <name>  (8) 
PTLXUSOYQHDDKB-UHFFFAOYSA-N

>  <csv_name>  (8) 
2AZ_iter1_frags_knitwork_impure_split1000_batch000.csv

>  <fragmenstein_mode>  (8) 
expansion

>  <exports>  (8) 
['/opt/xchem-fragalysis-2/maxwin/BulkDock/OUTPUTS/2AZ_iter1_frags_knitwork_impure_split1000_batch000_282123.sdf', '/opt/xchem-fragalysis-2/maxwin/BulkDock/OUTPUTS/2AZ_iter1_frags_knitwork_impure_split1000_batch000_282123_fragalysis.sdf']

>  <HIPPO Compound ID>  (8) 
563

>  <original SMILES>  (8) 
O=C(CCc1ccc(C(=O)O)cc1)Nc1cccc2[nH]ccc12

>  <fragmenstein_runtime>  (8) 
1.865139

>  <ref_pdb>  (8) 
A0503a

>  <original ID>  (8) 
PTLXUSOYQHDDKB-UHFFFAOYSA-N

>  <tags>  (8) 
['Fragmenstein placed']

>  <fragmenstein_outcome>  (8) 
acceptable

$$$$
258
     RDKit          3D

 23 25  0  0  0  0  0  0  0  0999 V2000
  -30.8901   -6.2167  -10.2038 O   0  0  0  0  0  0  0  0  0  0  0  0
  -30.4883   -5.7074   -9.2319 C   0  0  0  0  0  0  0  0  0  0  0  0
  -30.8123   -6.1895   -7.8314 C   0  0  0  0  0  0  0  0  0  0  0  0
  -31.7938   -5.2020   -7.1817 C   0  0  0  0  0  0  0  0  0  0  0  0
  -33.2264   -5.3972   -7.6245 C   0  0  0  0  0  0  0  0  0  0  0  0
  -33.6310   -4.8807   -8.8672 C   0  0  0  0  0  0  0  0  0  0  0  0
  -34.9548   -4.9791   -9.3003 C   0  0  0  0  0  0  0  0  0  0  0  0
  -35.9069   -5.5977   -8.4988 C   0  0  0  0  0  0  0  0  0  0  0  0
  -35.5280   -6.1378   -7.2718 C   0  0  0  0  0  0  0  0  0  0  0  0
  -34.1931   -6.0608   -6.8397 C   0  0  0  0  0  0  0  0  0  0  0  0
  -33.9070   -6.7066   -5.5373 C   0  0  0  0  0  0  0  0  0  0  0  0
  -34.6352   -6.7041   -4.5622 O   0  0  0  0  0  0  0  0  0  0  0  0
  -32.7620   -7.4115   -5.5500 O   0  0  0  0  0  0  0  0  0  0  0  0
  -29.6483   -4.4082   -9.0461 N   0  0  0  0  0  0  0  0  0  0  0  0
  -29.2323   -3.4615   -9.9760 C   0  0  0  0  0  0  0  0  0  0  0  0
  -28.2262   -2.5811   -9.5348 C   0  0  0  0  0  0  0  0  0  0  0  0
  -27.8248   -1.5000  -10.3067 C   0  0  0  0  0  0  0  0  0  0  0  0
  -28.4358   -1.2340  -11.5232 C   0  0  0  0  0  0  0  0  0  0  0  0
  -29.4465   -2.0986  -11.9436 C   0  0  0  0  0  0  0  0  0  0  0  0
  -30.2177   -2.0163  -13.0769 N   0  0  0  0  0  0  0  0  0  0  0  0
  -31.1319   -3.0260  -13.1065 C   0  0  0  0  0  0  0  0  0  0  0  0
  -30.9278   -3.7903  -11.9798 C   0  0  0  0  0  0  0  0  0  0  0  0
  -29.8568   -3.2227  -11.2234 C   0  0  0  0  0  0  0  0  0  0  0  0
  1  2  2  0
  2  3  1  0
  3  4  1  0
  4  5  1  0
  5  6  2  0
  6  7  1  0
  7  8  2  0
  8  9  1  0
  9 10  2  0
 10 11  1  0
 11 12  2  0
 11 13  1  0
  2 14  1  0
 14 15  1  0
 15 16  2  0
 16 17  1  0
 17 18  2  0
 18 19  1  0
 19 20  1  0
 20 21  1  0
 21 22  2  0
 22 23  1  0
 10  5  1  0
 23 15  1  0
 23 19  2  0
M  END
>  <SLURM_JOB_NAME>  (9) 
BulkDock.place:A71EV2AZ:2AZ_iter1_frags_knitwork_impure_split1000_batch000

>  <SLURM_JOB_ID>  (9) 
282123

>  <distance_score>  (9) 
0.880678

>  <alias>  (9) 
None

>  <fragmenstein_error>  (9) 
None

>  <scratch_subdir>  (9) 
/opt/xchem-fragalysis-2/maxwin/BulkDock/SCRATCH/282123/C565-P5

>  <energy_score>  (9) 
-28.227511

>  <HIPPO Pose ID>  (9) 
258

>  <ref_mols>  (9) 
A0229a,A0503a

>  <inchikey>  (9) 
VQICLZGJBXNVOK-UHFFFAOYSA-N

>  <name>  (9) 
VQICLZGJBXNVOK-UHFFFAOYSA-N

>  <csv_name>  (9) 
2AZ_iter1_frags_knitwork_impure_split1000_batch000.csv

>  <fragmenstein_mode>  (9) 
expansion

>  <exports>  (9) 
['/opt/xchem-fragalysis-2/maxwin/BulkDock/OUTPUTS/2AZ_iter1_frags_knitwork_impure_split1000_batch000_282123.sdf', '/opt/xchem-fragalysis-2/maxwin/BulkDock/OUTPUTS/2AZ_iter1_frags_knitwork_impure_split1000_batch000_282123_fragalysis.sdf']

>  <HIPPO Compound ID>  (9) 
565

>  <original SMILES>  (9) 
O=C(CCc1ccccc1C(=O)O)Nc1cccc2[nH]ccc12

>  <fragmenstein_runtime>  (9) 
1.887453

>  <ref_pdb>  (9) 
A0503a

>  <original ID>  (9) 
VQICLZGJBXNVOK-UHFFFAOYSA-N

>  <tags>  (9) 
['Fragmenstein placed']

>  <fragmenstein_outcome>  (9) 
acceptable

$$$$
273
     RDKit          3D

 21 23  0  0  0  0  0  0  0  0999 V2000
  -31.2690   -6.0737  -10.2698 O   0  0  0  0  0  0  0  0  0  0  0  0
  -30.7445   -5.6827   -9.3017 C   0  0  0  0  0  0  0  0  0  0  0  0
  -30.9965   -6.2580   -7.9239 C   0  0  0  0  0  0  0  0  0  0  0  0
  -31.8363   -5.2821   -7.1021 C   0  0  0  0  0  0  0  0  0  0  0  0
  -33.2222   -5.0636   -7.6467 C   0  0  0  0  0  0  0  0  0  0  0  0
  -33.7148   -3.8108   -7.5999 N   0  0  0  0  0  0  0  0  0  0  0  0
  -35.0060   -3.6545   -7.9737 C   0  0  0  0  0  0  0  0  0  0  0  0
  -35.7993   -4.6916   -8.3914 C   0  0  0  0  0  0  0  0  0  0  0  0
  -37.0707   -4.5091   -8.7635 F   0  0  0  0  0  0  0  0  0  0  0  0
  -35.2134   -5.9318   -8.3904 C   0  0  0  0  0  0  0  0  0  0  0  0
  -33.9391   -6.1515   -7.9979 N   0  0  0  0  0  0  0  0  0  0  0  0
  -29.7806   -4.4762   -9.0925 N   0  0  0  0  0  0  0  0  0  0  0  0
  -29.3606   -3.4893   -9.9820 C   0  0  0  0  0  0  0  0  0  0  0  0
  -28.3277   -2.6567   -9.5019 C   0  0  0  0  0  0  0  0  0  0  0  0
  -27.8688   -1.5697  -10.2334 C   0  0  0  0  0  0  0  0  0  0  0  0
  -28.4325   -1.2598  -11.4615 C   0  0  0  0  0  0  0  0  0  0  0  0
  -29.4598   -2.0811  -11.9283 C   0  0  0  0  0  0  0  0  0  0  0  0
  -30.1794   -1.9594  -13.0916 N   0  0  0  0  0  0  0  0  0  0  0  0
  -31.1374   -2.9239  -13.1651 C   0  0  0  0  0  0  0  0  0  0  0  0
  -31.0125   -3.7029  -12.0375 C   0  0  0  0  0  0  0  0  0  0  0  0
  -29.9432   -3.1958  -11.2373 C   0  0  0  0  0  0  0  0  0  0  0  0
  1  2  2  0
  2  3  1  0
  3  4  1  0
  4  5  1  0
  5  6  2  0
  6  7  1  0
  7  8  2  0
  8  9  1  0
  8 10  1  0
 10 11  2  0
  2 12  1  0
 12 13  1  0
 13 14  2  0
 14 15  1  0
 15 16  2  0
 16 17  1  0
 17 18  1  0
 18 19  1  0
 19 20  2  0
 20 21  1  0
 11  5  1  0
 21 13  1  0
 21 17  2  0
M  END
>  <SLURM_JOB_NAME>  (10) 
BulkDock.place:A71EV2AZ:2AZ_iter1_frags_knitwork_impure_split1000_batch000

>  <SLURM_JOB_ID>  (10) 
282123

>  <distance_score>  (10) 
0.934567

>  <alias>  (10) 
None

>  <fragmenstein_error>  (10) 
None

>  <scratch_subdir>  (10) 
/opt/xchem-fragalysis-2/maxwin/BulkDock/SCRATCH/282123/C570-P5

>  <energy_score>  (10) 
-4.093844

>  <HIPPO Pose ID>  (10) 
273

>  <ref_mols>  (10) 
A0229a,A0503a

>  <inchikey>  (10) 
LKTMHMFLYWIHLZ-UHFFFAOYSA-N

>  <name>  (10) 
LKTMHMFLYWIHLZ-UHFFFAOYSA-N

>  <csv_name>  (10) 
2AZ_iter1_frags_knitwork_impure_split1000_batch000.csv

>  <fragmenstein_mode>  (10) 
expansion

>  <exports>  (10) 
['/opt/xchem-fragalysis-2/maxwin/BulkDock/OUTPUTS/2AZ_iter1_frags_knitwork_impure_split1000_batch000_282123.sdf', '/opt/xchem-fragalysis-2/maxwin/BulkDock/OUTPUTS/2AZ_iter1_frags_knitwork_impure_split1000_batch000_282123_fragalysis.sdf']

>  <HIPPO Compound ID>  (10) 
570

>  <original SMILES>  (10) 
O=C(CCc1ncc(F)cn1)Nc1cccc2[nH]ccc12

>  <fragmenstein_runtime>  (10) 
1.56485

>  <ref_pdb>  (10) 
A0503a

>  <original ID>  (10) 
LKTMHMFLYWIHLZ-UHFFFAOYSA-N

>  <tags>  (10) 
['Fragmenstein placed']

>  <fragmenstein_outcome>  (10) 
acceptable

$$$$
298
     RDKit          3D

 23 25  0  0  0  0  0  0  0  0999 V2000
  -35.1623   -4.0876  -11.6452 C   0  0  0  0  0  0  0  0  0  0  0  0
  -36.3048   -4.1456  -10.7958 O   0  0  0  0  0  0  0  0  0  0  0  0
  -36.0537   -3.5749   -9.4934 C   0  0  1  0  0  0  0  0  0  0  0  0
  -37.4089   -3.4254   -8.8046 C   0  0  0  0  0  0  0  0  0  0  0  0
  -35.0927   -4.3752   -8.6614 C   0  0  0  0  0  0  0  0  0  0  0  0
  -35.3707   -5.5971   -8.1803 N   0  0  0  0  0  0  0  0  0  0  0  0
  -34.1864   -5.9711   -7.5489 O   0  0  0  0  0  0  0  0  0  0  0  0
  -33.3137   -4.9352   -7.7137 C   0  0  0  0  0  0  0  0  0  0  0  0
  -31.9746   -5.0985   -7.1010 C   0  0  0  0  0  0  0  0  0  0  0  0
  -31.1111   -6.1150   -7.8442 C   0  0  0  0  0  0  0  0  0  0  0  0
  -30.8172   -5.5944   -9.2348 C   0  0  0  0  0  0  0  0  0  0  0  0
  -31.3325   -6.0103  -10.1971 O   0  0  0  0  0  0  0  0  0  0  0  0
  -29.8312   -4.4030   -9.0529 N   0  0  0  0  0  0  0  0  0  0  0  0
  -29.3730   -3.4599   -9.9706 C   0  0  0  0  0  0  0  0  0  0  0  0
  -28.3270   -2.6358   -9.5049 C   0  0  0  0  0  0  0  0  0  0  0  0
  -27.8565   -1.5651  -10.2526 C   0  0  0  0  0  0  0  0  0  0  0  0
  -28.4226   -1.2626  -11.4816 C   0  0  0  0  0  0  0  0  0  0  0  0
  -29.4568   -2.0811  -11.9378 C   0  0  0  0  0  0  0  0  0  0  0  0
  -30.1794   -1.9644  -13.0999 N   0  0  0  0  0  0  0  0  0  0  0  0
  -31.1410   -2.9265  -13.1645 C   0  0  0  0  0  0  0  0  0  0  0  0
  -31.0189   -3.6949  -12.0295 C   0  0  0  0  0  0  0  0  0  0  0  0
  -29.9481   -3.1838  -11.2336 C   0  0  0  0  0  0  0  0  0  0  0  0
  -33.8257   -3.9190   -8.3653 N   0  0  0  0  0  0  0  0  0  0  0  0
  1  2  1  0
  2  3  1  0
  3  4  1  1
  3  5  1  0
  5  6  2  0
  6  7  1  0
  7  8  1  0
  8  9  1  0
  9 10  1  0
 10 11  1  0
 11 12  2  0
 11 13  1  0
 13 14  1  0
 14 15  2  0
 15 16  1  0
 16 17  2  0
 17 18  1  0
 18 19  1  0
 19 20  1  0
 20 21  2  0
 21 22  1  0
  8 23  2  0
 23  5  1  0
 22 14  1  0
 22 18  2  0
M  END
>  <SLURM_JOB_NAME>  (11) 
BulkDock.place:A71EV2AZ:2AZ_iter1_frags_knitwork_impure_split1000_batch000

>  <SLURM_JOB_ID>  (11) 
282123

>  <distance_score>  (11) 
0.919419

>  <alias>  (11) 
None

>  <fragmenstein_error>  (11) 
None

>  <scratch_subdir>  (11) 
/opt/xchem-fragalysis-2/maxwin/BulkDock/SCRATCH/282123/C574-P5

>  <energy_score>  (11) 
-12.190461

>  <HIPPO Pose ID>  (11) 
298

>  <ref_mols>  (11) 
A0229a,A0503a

>  <inchikey>  (11) 
KWNJULCXZKXXRC-JTQLQIEISA-N

>  <name>  (11) 
KWNJULCXZKXXRC-JTQLQIEISA-N

>  <csv_name>  (11) 
2AZ_iter1_frags_knitwork_impure_split1000_batch000.csv

>  <fragmenstein_mode>  (11) 
expansion

>  <exports>  (11) 
['/opt/xchem-fragalysis-2/maxwin/BulkDock/OUTPUTS/2AZ_iter1_frags_knitwork_impure_split1000_batch000_282123.sdf', '/opt/xchem-fragalysis-2/maxwin/BulkDock/OUTPUTS/2AZ_iter1_frags_knitwork_impure_split1000_batch000_282123_fragalysis.sdf']

>  <HIPPO Compound ID>  (11) 
574

>  <original SMILES>  (11) 
CO[C@@H](C)c1noc(CCC(=O)Nc2cccc3[nH]ccc23)n1

>  <fragmenstein_runtime>  (11) 
3.087701

>  <ref_pdb>  (11) 
A0503a

>  <original ID>  (11) 
KWNJULCXZKXXRC-JTQLQIEISA-N

>  <tags>  (11) 
['Fragmenstein placed']

>  <fragmenstein_outcome>  (11) 
acceptable

$$$$
561
     RDKit          3D

 22 23  0  0  0  0  0  0  0  0999 V2000
  -27.3086   -0.8586  -11.7971 C   0  0  0  0  0  0  0  0  0  0  0  0
  -28.1839   -1.8619  -11.2036 N   0  0  0  0  0  0  0  0  0  0  0  0
  -29.5394   -1.7396  -11.7815 C   0  0  0  0  0  0  0  0  0  0  0  0
  -30.4187   -2.9947  -11.7140 C   0  0  0  0  0  0  0  0  0  0  0  0
  -31.6632   -2.7608  -12.3772 O   0  0  0  0  0  0  0  0  0  0  0  0
  -28.1366   -1.6454   -9.7533 C   0  0  0  0  0  0  0  0  0  0  0  0
  -28.4193   -2.8835   -8.9973 C   0  0  0  0  0  0  0  0  0  0  0  0
  -28.6327   -4.1763   -9.4198 C   0  0  0  0  0  0  0  0  0  0  0  0
  -28.9827   -4.8316   -8.2885 N   0  0  0  0  0  0  0  0  0  0  0  0
  -29.5557   -6.1552   -8.1912 C   0  0  0  0  0  0  0  0  0  0  0  0
  -30.6096   -6.2788   -7.0918 C   0  0  0  0  0  0  0  0  0  0  0  0
  -31.8119   -5.3857   -7.3814 C   0  0  0  0  0  0  0  0  0  0  0  0
  -32.1243   -5.0723   -8.4605 O   0  0  0  0  0  0  0  0  0  0  0  0
  -32.4856   -5.0933   -6.0158 N   0  0  0  0  0  0  0  0  0  0  0  0
  -33.6355   -4.2711   -5.6899 C   0  0  0  0  0  0  0  0  0  0  0  0
  -33.5901   -3.7984   -4.2285 C   0  0  0  0  0  0  0  0  0  0  0  0
  -34.4492   -4.6343   -3.2752 C   0  0  0  0  0  0  0  0  0  0  0  0
  -34.5388   -6.0913   -3.7047 C   0  0  0  0  0  0  0  0  0  0  0  0
  -35.1393   -6.2432   -5.1034 C   0  0  0  0  0  0  0  0  0  0  0  0
  -34.9312   -5.0200   -6.0020 C   0  0  0  0  0  0  0  0  0  0  0  0
  -28.7779   -4.0678   -7.2003 N   0  0  0  0  0  0  0  0  0  0  0  0
  -28.4684   -2.8519   -7.6271 N   0  0  0  0  0  0  0  0  0  0  0  0
  1  2  1  0
  2  3  1  0
  3  4  1  0
  4  5  1  0
  2  6  1  0
  6  7  1  0
  7  8  2  0
  8  9  1  0
  9 10  1  0
 10 11  1  0
 11 12  1  0
 12 13  2  0
 12 14  1  0
 14 15  1  0
 15 16  1  0
 16 17  1  0
 17 18  1  0
 18 19  1  0
 19 20  1  0
  9 21  1  0
 21 22  2  0
 22  7  1  0
 20 15  1  0
M  END
>  <SLURM_JOB_NAME>  (12) 
BulkDock.place:A71EV2AZ:2AZ_iter1_frags_knitwork_impure_split1000_batch000

>  <SLURM_JOB_ID>  (12) 
282123

>  <distance_score>  (12) 
0.985288

>  <alias>  (12) 
None

>  <fragmenstein_error>  (12) 
None

>  <scratch_subdir>  (12) 
/opt/xchem-fragalysis-2/maxwin/BulkDock/SCRATCH/282123/C761-P5

>  <energy_score>  (12) 
-30.386477

>  <HIPPO Pose ID>  (12) 
561

>  <ref_mols>  (12) 
A0503a,A0759a

>  <inchikey>  (12) 
ZSQKMIQFLJAIOU-UHFFFAOYSA-N

>  <name>  (12) 
ZSQKMIQFLJAIOU-UHFFFAOYSA-N

>  <csv_name>  (12) 
2AZ_iter1_frags_knitwork_impure_split1000_batch000.csv

>  <fragmenstein_mode>  (12) 
expansion

>  <exports>  (12) 
['/opt/xchem-fragalysis-2/maxwin/BulkDock/OUTPUTS/2AZ_iter1_frags_knitwork_impure_split1000_batch000_282123.sdf', '/opt/xchem-fragalysis-2/maxwin/BulkDock/OUTPUTS/2AZ_iter1_frags_knitwork_impure_split1000_batch000_282123_fragalysis.sdf']

>  <HIPPO Compound ID>  (12) 
761

>  <original SMILES>  (12) 
CN(CCO)Cc1cn(CCC(=O)NC2CCCCC2)nn1

>  <fragmenstein_runtime>  (12) 
2.64332

>  <ref_pdb>  (12) 
A0503a

>  <original ID>  (12) 
ZSQKMIQFLJAIOU-UHFFFAOYSA-N

>  <tags>  (12) 
['Fragmenstein placed']

>  <fragmenstein_outcome>  (12) 
acceptable

$$$$
639
     RDKit          3D

 20 21  0  0  0  0  0  0  0  0999 V2000
  -35.0489   -4.4709   -3.5628 C   0  0  0  0  0  0  0  0  0  0  0  0
  -33.5478   -4.4052   -3.9153 C   0  0  0  0  0  0  0  0  0  0  0  0
  -32.8277   -5.5084   -3.1087 C   0  0  0  0  0  0  0  0  0  0  0  0
  -33.0480   -3.0387   -3.4025 C   0  0  0  0  0  0  0  0  0  0  0  0
  -33.3224   -4.5541   -5.4819 C   0  0  2  0  0  0  0  0  0  0  0  0
  -33.9029   -5.8950   -6.0263 C   0  0  0  0  0  0  0  0  0  0  0  0
  -33.9794   -5.9100   -7.4506 O   0  0  0  0  0  0  0  0  0  0  0  0
  -31.8779   -4.4003   -5.7765 N   0  0  0  0  0  0  0  0  0  0  0  0
  -31.5079   -4.3323   -7.1976 C   0  0  0  0  0  0  0  0  0  0  0  0
  -30.7161   -5.5855   -7.6120 C   0  0  0  0  0  0  0  0  0  0  0  0
  -30.0458   -5.4690   -8.9802 C   0  0  0  0  0  0  0  0  0  0  0  0
  -29.1417   -4.3440   -9.1014 N   0  0  0  0  0  0  0  0  0  0  0  0
  -28.1361   -4.0196   -8.2312 C   0  0  0  0  0  0  0  0  0  0  0  0
  -27.5438   -2.8950   -8.5643 N   0  0  0  0  0  0  0  0  0  0  0  0
  -28.1643   -2.4994   -9.7249 C   0  0  0  0  0  0  0  0  0  0  0  0
  -27.9197   -1.3819  -10.5298 C   0  0  0  0  0  0  0  0  0  0  0  0
  -28.6929   -1.2004  -11.6782 C   0  0  0  0  0  0  0  0  0  0  0  0
  -29.6922   -2.1063  -12.0226 C   0  0  0  0  0  0  0  0  0  0  0  0
  -29.9469   -3.2317  -11.2393 C   0  0  0  0  0  0  0  0  0  0  0  0
  -29.1638   -3.3970  -10.0925 C   0  0  0  0  0  0  0  0  0  0  0  0
  1  2  1  0
  2  3  1  0
  2  4  1  0
  2  5  1  0
  5  6  1  1
  6  7  1  0
  5  8  1  0
  8  9  1  0
  9 10  1  0
 10 11  1  0
 11 12  1  0
 12 13  1  0
 13 14  2  0
 14 15  1  0
 15 16  2  0
 16 17  1  0
 17 18  2  0
 18 19  1  0
 19 20  2  0
 20 12  1  0
 20 15  1  0
M  END
>  <SLURM_JOB_NAME>  (13) 
BulkDock.place:A71EV2AZ:2AZ_iter1_frags_knitwork_impure_split1000_batch000

>  <SLURM_JOB_ID>  (13) 
282123

>  <distance_score>  (13) 
0.646121

>  <alias>  (13) 
None

>  <fragmenstein_error>  (13) 
None

>  <scratch_subdir>  (13) 
/opt/xchem-fragalysis-2/maxwin/BulkDock/SCRATCH/282123/C814-P5

>  <energy_score>  (13) 
-25.930331

>  <HIPPO Pose ID>  (13) 
639

>  <ref_mols>  (13) 
A0503a,A0759a

>  <inchikey>  (13) 
MTJZKQZCPYWVOW-HNNXBMFYSA-N

>  <name>  (13) 
MTJZKQZCPYWVOW-HNNXBMFYSA-N

>  <csv_name>  (13) 
2AZ_iter1_frags_knitwork_impure_split1000_batch000.csv

>  <fragmenstein_mode>  (13) 
expansion

>  <exports>  (13) 
['/opt/xchem-fragalysis-2/maxwin/BulkDock/OUTPUTS/2AZ_iter1_frags_knitwork_impure_split1000_batch000_282123.sdf', '/opt/xchem-fragalysis-2/maxwin/BulkDock/OUTPUTS/2AZ_iter1_frags_knitwork_impure_split1000_batch000_282123_fragalysis.sdf']

>  <HIPPO Compound ID>  (13) 
814

>  <original SMILES>  (13) 
CC(C)(C)[C@H](CO)NCCCn1cnc2ccccc21

>  <fragmenstein_runtime>  (13) 
2.036808

>  <ref_pdb>  (13) 
A0503a

>  <original ID>  (13) 
MTJZKQZCPYWVOW-HNNXBMFYSA-N

>  <tags>  (13) 
['Fragmenstein placed']

>  <fragmenstein_outcome>  (13) 
acceptable

$$$$
640
     RDKit          3D

 20 21  0  0  0  0  0  0  0  0999 V2000
  -34.6325   -4.1476   -3.5190 C   0  0  0  0  0  0  0  0  0  0  0  0
  -33.2117   -4.0178   -4.1015 C   0  0  0  0  0  0  0  0  0  0  0  0
  -32.2268   -4.6162   -3.0709 C   0  0  0  0  0  0  0  0  0  0  0  0
  -32.8868   -2.5140   -4.2529 C   0  0  0  0  0  0  0  0  0  0  0  0
  -33.1086   -4.7019   -5.5207 C   0  0  2  0  0  0  0  0  0  0  0  0
  -33.5659   -6.1835   -5.5322 C   0  0  0  0  0  0  0  0  0  0  0  0
  -34.9873   -6.2759   -5.6017 O   0  0  0  0  0  0  0  0  0  0  0  0
  -31.7228   -4.5780   -5.9910 N   0  0  0  0  0  0  0  0  0  0  0  0
  -31.5155   -4.6706   -7.4354 C   0  0  0  0  0  0  0  0  0  0  0  0
  -30.5845   -5.8508   -7.7500 C   0  0  0  0  0  0  0  0  0  0  0  0
  -29.8756   -5.7287   -9.0943 C   0  0  0  0  0  0  0  0  0  0  0  0
  -29.0214   -4.5626   -9.1865 N   0  0  0  0  0  0  0  0  0  0  0  0
  -28.0228   -4.2234   -8.3137 C   0  0  0  0  0  0  0  0  0  0  0  0
  -27.4500   -3.0878   -8.6413 N   0  0  0  0  0  0  0  0  0  0  0  0
  -28.0850   -2.6960   -9.7944 C   0  0  0  0  0  0  0  0  0  0  0  0
  -27.8451   -1.5851  -10.6049 C   0  0  0  0  0  0  0  0  0  0  0  0
  -28.6110   -1.4279  -11.7604 C   0  0  0  0  0  0  0  0  0  0  0  0
  -29.6124   -2.3337  -12.0999 C   0  0  0  0  0  0  0  0  0  0  0  0
  -29.8729   -3.4440  -11.3008 C   0  0  0  0  0  0  0  0  0  0  0  0
  -29.0781   -3.6013  -10.1604 C   0  0  0  0  0  0  0  0  0  0  0  0
  1  2  1  0
  2  3  1  0
  2  4  1  0
  2  5  1  0
  5  6  1  1
  6  7  1  0
  5  8  1  0
  8  9  1  0
  9 10  1  0
 10 11  1  0
 11 12  1  0
 12 13  1  0
 13 14  2  0
 14 15  1  0
 15 16  2  0
 16 17  1  0
 17 18  2  0
 18 19  1  0
 19 20  2  0
 20 12  1  0
 20 15  1  0
M  END
>  <SLURM_JOB_NAME>  (14) 
BulkDock.place:A71EV2AZ:2AZ_iter1_frags_knitwork_impure_split1000_batch000

>  <SLURM_JOB_ID>  (14) 
282123

>  <distance_score>  (14) 
0.622235

>  <alias>  (14) 
None

>  <fragmenstein_error>  (14) 
None

>  <scratch_subdir>  (14) 
/opt/xchem-fragalysis-2/maxwin/BulkDock/SCRATCH/282123/C814-P6

>  <energy_score>  (14) 
-22.554997

>  <HIPPO Pose ID>  (14) 
640

>  <ref_mols>  (14) 
A0503a,A0759a

>  <inchikey>  (14) 
MTJZKQZCPYWVOW-HNNXBMFYSA-N

>  <name>  (14) 
MTJZKQZCPYWVOW-HNNXBMFYSA-N

>  <csv_name>  (14) 
2AZ_iter1_frags_knitwork_impure_split1000_batch000.csv

>  <fragmenstein_mode>  (14) 
expansion

>  <exports>  (14) 
['/opt/xchem-fragalysis-2/maxwin/BulkDock/OUTPUTS/2AZ_iter1_frags_knitwork_impure_split1000_batch000_282123.sdf', '/opt/xchem-fragalysis-2/maxwin/BulkDock/OUTPUTS/2AZ_iter1_frags_knitwork_impure_split1000_batch000_282123_fragalysis.sdf']

>  <HIPPO Compound ID>  (14) 
814

>  <original SMILES>  (14) 
CC(C)(C)[C@H](CO)NCCCn1cnc2ccccc21

>  <fragmenstein_runtime>  (14) 
2.778882

>  <ref_pdb>  (14) 
A0759a

>  <original ID>  (14) 
MTJZKQZCPYWVOW-HNNXBMFYSA-N

>  <tags>  (14) 
['Fragmenstein placed']

>  <fragmenstein_outcome>  (14) 
acceptable

$$$$
648
     RDKit          3D

 19 20  0  0  0  0  0  0  0  0999 V2000
  -31.5094   -3.0002   -8.3863 C   0  0  0  0  0  0  0  0  0  0  0  0
  -30.4565   -3.5511   -7.4124 C   0  0  1  0  0  0  0  0  0  0  0  0
  -31.0930   -4.6432   -6.6455 N   0  0  0  0  0  0  0  0  0  0  0  0
  -31.6510   -4.0551   -5.3975 C   0  0  0  0  0  0  0  0  0  0  0  0
  -33.0639   -4.5497   -5.0096 C   0  0  1  0  0  0  0  0  0  0  0  0
  -34.1380   -3.9563   -5.9140 C   0  0  0  0  0  0  0  0  0  0  0  0
  -33.1046   -5.9835   -5.1478 O   0  0  0  0  0  0  0  0  0  0  0  0
  -33.3431   -4.1207   -3.5556 C   0  0  0  0  0  0  0  0  0  0  0  0
  -34.6287   -4.3920   -3.2097 F   0  0  0  0  0  0  0  0  0  0  0  0
  -33.2029   -2.7702   -3.4152 F   0  0  0  0  0  0  0  0  0  0  0  0
  -29.2144   -3.9021   -8.1989 C   0  0  0  0  0  0  0  0  0  0  0  0
  -28.2189   -3.0417   -8.3862 N   0  0  0  0  0  0  0  0  0  0  0  0
  -28.3292   -2.7816   -9.7294 C   0  0  0  0  0  0  0  0  0  0  0  0
  -27.9293   -1.6671  -10.4674 C   0  0  0  0  0  0  0  0  0  0  0  0
  -28.4420   -1.5236  -11.7590 C   0  0  0  0  0  0  0  0  0  0  0  0
  -29.2820   -2.4881  -12.3205 C   0  0  0  0  0  0  0  0  0  0  0  0
  -29.5917   -3.6661  -11.6410 C   0  0  0  0  0  0  0  0  0  0  0  0
  -29.0939   -3.7667  -10.3467 C   0  0  0  0  0  0  0  0  0  0  0  0
  -29.3104   -4.6866   -9.3368 N   0  0  0  0  0  0  0  0  0  0  0  0
  2  1  1  6
  2  3  1  0
  3  4  1  0
  4  5  1  0
  5  6  1  6
  5  7  1  0
  5  8  1  0
  8  9  1  0
  8 10  1  0
  2 11  1  0
 11 12  2  0
 12 13  1  0
 13 14  2  0
 14 15  1  0
 15 16  2  0
 16 17  1  0
 17 18  2  0
 18 19  1  0
 19 11  1  0
 18 13  1  0
M  END
>  <SLURM_JOB_NAME>  (15) 
BulkDock.place:A71EV2AZ:2AZ_iter1_frags_knitwork_impure_split1000_batch000

>  <SLURM_JOB_ID>  (15) 
282123

>  <distance_score>  (15) 
0.936614

>  <alias>  (15) 
None

>  <fragmenstein_error>  (15) 
None

>  <scratch_subdir>  (15) 
/opt/xchem-fragalysis-2/maxwin/BulkDock/SCRATCH/282123/C818-P6

>  <energy_score>  (15) 
-4.61856

>  <HIPPO Pose ID>  (15) 
648

>  <ref_mols>  (15) 
A0503a,A0759a

>  <inchikey>  (15) 
GBKASBVGFFUUHX-AMIZOPFISA-N

>  <name>  (15) 
GBKASBVGFFUUHX-AMIZOPFISA-N

>  <csv_name>  (15) 
2AZ_iter1_frags_knitwork_impure_split1000_batch000.csv

>  <fragmenstein_mode>  (15) 
expansion

>  <exports>  (15) 
['/opt/xchem-fragalysis-2/maxwin/BulkDock/OUTPUTS/2AZ_iter1_frags_knitwork_impure_split1000_batch000_282123.sdf', '/opt/xchem-fragalysis-2/maxwin/BulkDock/OUTPUTS/2AZ_iter1_frags_knitwork_impure_split1000_batch000_282123_fragalysis.sdf']

>  <HIPPO Compound ID>  (15) 
818

>  <original SMILES>  (15) 
C[C@@H](NC[C@@](C)(O)C(F)F)c1nc2ccccc2[nH]1

>  <fragmenstein_runtime>  (15) 
2.962375

>  <ref_pdb>  (15) 
A0759a

>  <original ID>  (15) 
GBKASBVGFFUUHX-AMIZOPFISA-N

>  <tags>  (15) 
['Fragmenstein placed']

>  <fragmenstein_outcome>  (15) 
acceptable

$$$$
655
     RDKit          3D

 21 22  0  0  0  0  0  0  0  0999 V2000
  -34.7734   -4.4150   -2.7461 C   0  0  0  0  0  0  0  0  0  0  0  0
  -33.7121   -5.1666   -3.5417 C   0  0  0  0  0  0  0  0  0  0  0  0
  -33.0410   -4.3830   -4.7027 C   0  0  1  0  0  0  0  0  0  0  0  0
  -32.4035   -3.2371   -4.0896 O   0  0  0  0  0  0  0  0  0  0  0  0
  -31.9701   -5.3017   -5.4036 C   0  0  0  0  0  0  0  0  0  0  0  0
  -31.2933   -4.7751   -6.6209 N   0  0  0  0  0  0  0  0  0  0  0  0
  -30.5558   -5.8292   -7.3375 C   0  0  0  0  0  0  0  0  0  0  0  0
  -30.0512   -5.4416   -8.7398 C   0  0  0  0  0  0  0  0  0  0  0  0
  -29.2073   -4.2711   -8.8359 N   0  0  0  0  0  0  0  0  0  0  0  0
  -28.2506   -3.8699   -7.9457 C   0  0  0  0  0  0  0  0  0  0  0  0
  -27.6347   -2.7781   -8.3440 N   0  0  0  0  0  0  0  0  0  0  0  0
  -28.2169   -2.4610   -9.5477 C   0  0  0  0  0  0  0  0  0  0  0  0
  -27.9578   -1.3907  -10.4126 C   0  0  0  0  0  0  0  0  0  0  0  0
  -28.7016   -1.2758  -11.5896 C   0  0  0  0  0  0  0  0  0  0  0  0
  -29.6742   -2.2173  -11.9138 C   0  0  0  0  0  0  0  0  0  0  0  0
  -29.9339   -3.3055  -11.0779 C   0  0  0  0  0  0  0  0  0  0  0  0
  -29.1961   -3.3892   -9.8908 C   0  0  0  0  0  0  0  0  0  0  0  0
  -34.0745   -3.9698   -5.7592 C   0  0  0  0  0  0  0  0  0  0  0  0
  -34.9206   -3.0384   -5.2633 F   0  0  0  0  0  0  0  0  0  0  0  0
  -33.4731   -3.4392   -6.8466 F   0  0  0  0  0  0  0  0  0  0  0  0
  -34.8116   -5.0234   -6.1757 F   0  0  0  0  0  0  0  0  0  0  0  0
  1  2  1  0
  2  3  1  0
  3  4  1  1
  3  5  1  0
  5  6  1  0
  6  7  1  0
  7  8  1  0
  8  9  1  0
  9 10  1  0
 10 11  2  0
 11 12  1  0
 12 13  2  0
 13 14  1  0
 14 15  2  0
 15 16  1  0
 16 17  2  0
  3 18  1  0
 18 19  1  0
 18 20  1  0
 18 21  1  0
 17  9  1  0
 17 12  1  0
M  END
>  <SLURM_JOB_NAME>  (16) 
BulkDock.place:A71EV2AZ:2AZ_iter1_frags_knitwork_impure_split1000_batch000

>  <SLURM_JOB_ID>  (16) 
282123

>  <distance_score>  (16) 
0.885787

>  <alias>  (16) 
None

>  <fragmenstein_error>  (16) 
None

>  <scratch_subdir>  (16) 
/opt/xchem-fragalysis-2/maxwin/BulkDock/SCRATCH/282123/C829-P5

>  <energy_score>  (16) 
-25.715357

>  <HIPPO Pose ID>  (16) 
655

>  <ref_mols>  (16) 
A0503a,A0759a

>  <inchikey>  (16) 
DORAXVZOXFTIJX-CYBMUJFWSA-N

>  <name>  (16) 
DORAXVZOXFTIJX-CYBMUJFWSA-N

>  <csv_name>  (16) 
2AZ_iter1_frags_knitwork_impure_split1000_batch000.csv

>  <fragmenstein_mode>  (16) 
expansion

>  <exports>  (16) 
['/opt/xchem-fragalysis-2/maxwin/BulkDock/OUTPUTS/2AZ_iter1_frags_knitwork_impure_split1000_batch000_282123.sdf', '/opt/xchem-fragalysis-2/maxwin/BulkDock/OUTPUTS/2AZ_iter1_frags_knitwork_impure_split1000_batch000_282123_fragalysis.sdf']

>  <HIPPO Compound ID>  (16) 
829

>  <original SMILES>  (16) 
CC[C@@](O)(CNCCn1cnc2ccccc21)C(F)(F)F

>  <fragmenstein_runtime>  (16) 
2.435224

>  <ref_pdb>  (16) 
A0503a

>  <original ID>  (16) 
DORAXVZOXFTIJX-CYBMUJFWSA-N

>  <tags>  (16) 
['Fragmenstein placed']

>  <fragmenstein_outcome>  (16) 
acceptable

$$$$
656
     RDKit          3D

 21 22  0  0  0  0  0  0  0  0999 V2000
  -34.3683   -4.2140   -2.5267 C   0  0  0  0  0  0  0  0  0  0  0  0
  -33.5631   -5.0664   -3.4880 C   0  0  0  0  0  0  0  0  0  0  0  0
  -32.9802   -4.3401   -4.7251 C   0  0  1  0  0  0  0  0  0  0  0  0
  -32.1932   -3.2138   -4.2728 O   0  0  0  0  0  0  0  0  0  0  0  0
  -32.0549   -5.3425   -5.5016 C   0  0  0  0  0  0  0  0  0  0  0  0
  -31.3718   -4.8040   -6.7048 N   0  0  0  0  0  0  0  0  0  0  0  0
  -30.6567   -5.8806   -7.4198 C   0  0  0  0  0  0  0  0  0  0  0  0
  -30.1348   -5.5099   -8.8159 C   0  0  0  0  0  0  0  0  0  0  0  0
  -29.2539   -4.3678   -8.8974 N   0  0  0  0  0  0  0  0  0  0  0  0
  -28.2695   -4.0201   -8.0151 C   0  0  0  0  0  0  0  0  0  0  0  0
  -27.6004   -2.9622   -8.4171 N   0  0  0  0  0  0  0  0  0  0  0  0
  -28.1707   -2.6205   -9.6196 C   0  0  0  0  0  0  0  0  0  0  0  0
  -27.8372   -1.5916  -10.5048 C   0  0  0  0  0  0  0  0  0  0  0  0
  -28.5626   -1.4644  -11.6911 C   0  0  0  0  0  0  0  0  0  0  0  0
  -29.6014   -2.3376  -12.0005 C   0  0  0  0  0  0  0  0  0  0  0  0
  -29.9484   -3.3729  -11.1338 C   0  0  0  0  0  0  0  0  0  0  0  0
  -29.2098   -3.4858   -9.9493 C   0  0  0  0  0  0  0  0  0  0  0  0
  -34.0981   -3.8916   -5.6715 C   0  0  0  0  0  0  0  0  0  0  0  0
  -34.8559   -2.9004   -5.1558 F   0  0  0  0  0  0  0  0  0  0  0  0
  -33.5824   -3.4577   -6.8419 F   0  0  0  0  0  0  0  0  0  0  0  0
  -34.9335   -4.9150   -5.9794 F   0  0  0  0  0  0  0  0  0  0  0  0
  1  2  1  0
  2  3  1  0
  3  4  1  1
  3  5  1  0
  5  6  1  0
  6  7  1  0
  7  8  1  0
  8  9  1  0
  9 10  1  0
 10 11  2  0
 11 12  1  0
 12 13  2  0
 13 14  1  0
 14 15  2  0
 15 16  1  0
 16 17  2  0
  3 18  1  0
 18 19  1  0
 18 20  1  0
 18 21  1  0
 17  9  1  0
 17 12  1  0
M  END
>  <SLURM_JOB_NAME>  (17) 
BulkDock.place:A71EV2AZ:2AZ_iter1_frags_knitwork_impure_split1000_batch000

>  <SLURM_JOB_ID>  (17) 
282123

>  <distance_score>  (17) 
0.916662

>  <alias>  (17) 
None

>  <fragmenstein_error>  (17) 
None

>  <scratch_subdir>  (17) 
/opt/xchem-fragalysis-2/maxwin/BulkDock/SCRATCH/282123/C829-P6

>  <energy_score>  (17) 
-31.767801

>  <HIPPO Pose ID>  (17) 
656

>  <ref_mols>  (17) 
A0503a,A0759a

>  <inchikey>  (17) 
DORAXVZOXFTIJX-CYBMUJFWSA-N

>  <name>  (17) 
DORAXVZOXFTIJX-CYBMUJFWSA-N

>  <csv_name>  (17) 
2AZ_iter1_frags_knitwork_impure_split1000_batch000.csv

>  <fragmenstein_mode>  (17) 
expansion

>  <exports>  (17) 
['/opt/xchem-fragalysis-2/maxwin/BulkDock/OUTPUTS/2AZ_iter1_frags_knitwork_impure_split1000_batch000_282123.sdf', '/opt/xchem-fragalysis-2/maxwin/BulkDock/OUTPUTS/2AZ_iter1_frags_knitwork_impure_split1000_batch000_282123_fragalysis.sdf']

>  <HIPPO Compound ID>  (17) 
829

>  <original SMILES>  (17) 
CC[C@@](O)(CNCCn1cnc2ccccc21)C(F)(F)F

>  <fragmenstein_runtime>  (17) 
2.614948

>  <ref_pdb>  (17) 
A0759a

>  <original ID>  (17) 
DORAXVZOXFTIJX-CYBMUJFWSA-N

>  <tags>  (17) 
['Fragmenstein placed']

>  <fragmenstein_outcome>  (17) 
acceptable

$$$$
663
     RDKit          3D

 18 19  0  0  0  0  0  0  0  0999 V2000
  -32.6974   -3.0674   -3.2779 C   0  0  0  0  0  0  0  0  0  0  0  0
  -33.3558   -3.8516   -4.4101 C   0  0  0  0  0  0  0  0  0  0  0  0
  -34.6128   -4.5349   -3.8613 C   0  0  0  0  0  0  0  0  0  0  0  0
  -32.4243   -4.8585   -4.9289 N   0  0  0  0  0  0  0  0  0  0  0  0
  -31.6005   -4.4328   -6.0953 C   0  0  2  0  0  0  0  0  0  0  0  0
  -32.4703   -4.4800   -7.3766 C   0  0  0  0  0  0  0  0  0  0  0  0
  -31.7016   -4.4189   -8.5632 O   0  0  0  0  0  0  0  0  0  0  0  0
  -30.3592   -5.3780   -6.2276 C   0  0  0  0  0  0  0  0  0  0  0  0
  -28.6997   -4.5774   -6.3051 S   0  0  0  0  0  0  0  0  0  0  0  0
  -28.6170   -3.8443   -7.8619 C   0  0  0  0  0  0  0  0  0  0  0  0
  -28.0889   -2.6715   -8.1293 N   0  0  0  0  0  0  0  0  0  0  0  0
  -28.4103   -2.4388   -9.4468 C   0  0  0  0  0  0  0  0  0  0  0  0
  -28.2010   -1.3077  -10.2424 C   0  0  0  0  0  0  0  0  0  0  0  0
  -28.7691   -1.2702  -11.5194 C   0  0  0  0  0  0  0  0  0  0  0  0
  -29.5205   -2.3395  -12.0019 C   0  0  0  0  0  0  0  0  0  0  0  0
  -29.6782   -3.5087  -11.2558 C   0  0  0  0  0  0  0  0  0  0  0  0
  -29.1024   -3.5155   -9.9864 C   0  0  0  0  0  0  0  0  0  0  0  0
  -29.1051   -4.4489   -8.9819 N   0  0  0  0  0  0  0  0  0  0  0  0
  1  2  1  0
  2  3  1  0
  2  4  1  0
  4  5  1  0
  5  6  1  6
  6  7  1  0
  5  8  1  0
  8  9  1  0
  9 10  1  0
 10 11  2  0
 11 12  1  0
 12 13  2  0
 13 14  1  0
 14 15  2  0
 15 16  1  0
 16 17  2  0
 17 18  1  0
 18 10  1  0
 17 12  1  0
M  END
>  <SLURM_JOB_NAME>  (18) 
BulkDock.place:A71EV2AZ:2AZ_iter1_frags_knitwork_impure_split1000_batch000

>  <SLURM_JOB_ID>  (18) 
282123

>  <distance_score>  (18) 
0.915795

>  <alias>  (18) 
None

>  <fragmenstein_error>  (18) 
None

>  <scratch_subdir>  (18) 
/opt/xchem-fragalysis-2/maxwin/BulkDock/SCRATCH/282123/C837-P5

>  <energy_score>  (18) 
-20.351757

>  <HIPPO Pose ID>  (18) 
663

>  <ref_mols>  (18) 
A0503a,A0759a

>  <inchikey>  (18) 
XXOPXEFSXATLRK-SNVBAGLBSA-N

>  <name>  (18) 
XXOPXEFSXATLRK-SNVBAGLBSA-N

>  <csv_name>  (18) 
2AZ_iter1_frags_knitwork_impure_split1000_batch000.csv

>  <fragmenstein_mode>  (18) 
expansion

>  <exports>  (18) 
['/opt/xchem-fragalysis-2/maxwin/BulkDock/OUTPUTS/2AZ_iter1_frags_knitwork_impure_split1000_batch000_282123.sdf', '/opt/xchem-fragalysis-2/maxwin/BulkDock/OUTPUTS/2AZ_iter1_frags_knitwork_impure_split1000_batch000_282123_fragalysis.sdf']

>  <HIPPO Compound ID>  (18) 
837

>  <original SMILES>  (18) 
CC(C)N[C@H](CO)CSc1nc2ccccc2[nH]1

>  <fragmenstein_runtime>  (18) 
2.200024

>  <ref_pdb>  (18) 
A0503a

>  <original ID>  (18) 
XXOPXEFSXATLRK-SNVBAGLBSA-N

>  <tags>  (18) 
['Fragmenstein placed']

>  <fragmenstein_outcome>  (18) 
acceptable

$$$$
664
     RDKit          3D

 18 19  0  0  0  0  0  0  0  0999 V2000
  -32.9311   -2.3137   -4.2624 C   0  0  0  0  0  0  0  0  0  0  0  0
  -33.3681   -3.7414   -4.5663 C   0  0  0  0  0  0  0  0  0  0  0  0
  -34.1305   -4.3127   -3.3647 C   0  0  0  0  0  0  0  0  0  0  0  0
  -32.2312   -4.6167   -4.8645 N   0  0  0  0  0  0  0  0  0  0  0  0
  -31.4336   -4.2883   -6.0806 C   0  0  2  0  0  0  0  0  0  0  0  0
  -32.3223   -4.3913   -7.3365 C   0  0  0  0  0  0  0  0  0  0  0  0
  -31.6078   -4.1985   -8.5370 O   0  0  0  0  0  0  0  0  0  0  0  0
  -30.2281   -5.2839   -6.1920 C   0  0  0  0  0  0  0  0  0  0  0  0
  -28.5454   -4.5591   -6.3430 S   0  0  0  0  0  0  0  0  0  0  0  0
  -28.4906   -3.9032   -7.9343 C   0  0  0  0  0  0  0  0  0  0  0  0
  -27.9568   -2.7516   -8.2680 N   0  0  0  0  0  0  0  0  0  0  0  0
  -28.3140   -2.5757   -9.5840 C   0  0  0  0  0  0  0  0  0  0  0  0
  -28.1061   -1.4916  -10.4387 C   0  0  0  0  0  0  0  0  0  0  0  0
  -28.6795   -1.5227  -11.7122 C   0  0  0  0  0  0  0  0  0  0  0  0
  -29.4438   -2.6070  -12.1367 C   0  0  0  0  0  0  0  0  0  0  0  0
  -29.6144   -3.7261  -11.3222 C   0  0  0  0  0  0  0  0  0  0  0  0
  -29.0223   -3.6713  -10.0606 C   0  0  0  0  0  0  0  0  0  0  0  0
  -29.0109   -4.5553   -9.0129 N   0  0  0  0  0  0  0  0  0  0  0  0
  1  2  1  0
  2  3  1  0
  2  4  1  0
  4  5  1  0
  5  6  1  6
  6  7  1  0
  5  8  1  0
  8  9  1  0
  9 10  1  0
 10 11  2  0
 11 12  1  0
 12 13  2  0
 13 14  1  0
 14 15  2  0
 15 16  1  0
 16 17  2  0
 17 18  1  0
 18 10  1  0
 17 12  1  0
M  END
>  <SLURM_JOB_NAME>  (19) 
BulkDock.place:A71EV2AZ:2AZ_iter1_frags_knitwork_impure_split1000_batch000

>  <SLURM_JOB_ID>  (19) 
282123

>  <distance_score>  (19) 
0.860014

>  <alias>  (19) 
None

>  <fragmenstein_error>  (19) 
None

>  <scratch_subdir>  (19) 
/opt/xchem-fragalysis-2/maxwin/BulkDock/SCRATCH/282123/C837-P6

>  <energy_score>  (19) 
-21.721734

>  <HIPPO Pose ID>  (19) 
664

>  <ref_mols>  (19) 
A0503a,A0759a

>  <inchikey>  (19) 
XXOPXEFSXATLRK-SNVBAGLBSA-N

>  <name>  (19) 
XXOPXEFSXATLRK-SNVBAGLBSA-N

>  <csv_name>  (19) 
2AZ_iter1_frags_knitwork_impure_split1000_batch000.csv

>  <fragmenstein_mode>  (19) 
expansion

>  <exports>  (19) 
['/opt/xchem-fragalysis-2/maxwin/BulkDock/OUTPUTS/2AZ_iter1_frags_knitwork_impure_split1000_batch000_282123.sdf', '/opt/xchem-fragalysis-2/maxwin/BulkDock/OUTPUTS/2AZ_iter1_frags_knitwork_impure_split1000_batch000_282123_fragalysis.sdf']

>  <HIPPO Compound ID>  (19) 
837

>  <original SMILES>  (19) 
CC(C)N[C@H](CO)CSc1nc2ccccc2[nH]1

>  <fragmenstein_runtime>  (19) 
1.698857

>  <ref_pdb>  (19) 
A0759a

>  <original ID>  (19) 
XXOPXEFSXATLRK-SNVBAGLBSA-N

>  <tags>  (19) 
['Fragmenstein placed']

>  <fragmenstein_outcome>  (19) 
acceptable

$$$$
670
     RDKit          3D

 17 18  0  0  0  0  0  0  0  0999 V2000
  -33.6339   -4.4732   -2.9401 C   0  0  0  0  0  0  0  0  0  0  0  0
  -33.9565   -3.6096   -4.1438 C   0  0  1  0  0  0  0  0  0  0  0  0
  -33.5331   -2.2673   -3.8774 O   0  0  0  0  0  0  0  0  0  0  0  0
  -33.3809   -4.1438   -5.4650 C   0  0  0  0  0  0  0  0  0  0  0  0
  -31.8493   -4.0369   -5.5918 C   0  0  0  0  0  0  0  0  0  0  0  0
  -31.3039   -4.4676   -6.9045 N   0  0  0  0  0  0  0  0  0  0  0  0
  -31.7672   -3.5639   -7.9672 C   0  0  0  0  0  0  0  0  0  0  0  0
  -29.7994   -4.4968   -6.8036 C   0  0  0  0  0  0  0  0  0  0  0  0
  -29.0572   -4.0987   -8.0484 C   0  0  0  0  0  0  0  0  0  0  0  0
  -28.3660   -2.9865   -8.2364 N   0  0  0  0  0  0  0  0  0  0  0  0
  -28.4898   -2.7381   -9.5828 C   0  0  0  0  0  0  0  0  0  0  0  0
  -28.1645   -1.5992  -10.3238 C   0  0  0  0  0  0  0  0  0  0  0  0
  -28.5942   -1.5244  -11.6514 C   0  0  0  0  0  0  0  0  0  0  0  0
  -29.3244   -2.5591  -12.2331 C   0  0  0  0  0  0  0  0  0  0  0  0
  -29.5806   -3.7405  -11.5373 C   0  0  0  0  0  0  0  0  0  0  0  0
  -29.1313   -3.7916  -10.2204 C   0  0  0  0  0  0  0  0  0  0  0  0
  -29.2529   -4.7504   -9.2452 N   0  0  0  0  0  0  0  0  0  0  0  0
  2  1  1  1
  2  3  1  0
  2  4  1  0
  4  5  1  0
  5  6  1  0
  6  7  1  0
  6  8  1  0
  8  9  1  0
  9 10  2  0
 10 11  1  0
 11 12  2  0
 12 13  1  0
 13 14  2  0
 14 15  1  0
 15 16  2  0
 16 17  1  0
 17  9  1  0
 16 11  1  0
M  END
>  <SLURM_JOB_NAME>  (20) 
BulkDock.place:A71EV2AZ:2AZ_iter1_frags_knitwork_impure_split1000_batch000

>  <SLURM_JOB_ID>  (20) 
282123

>  <distance_score>  (20) 
0.956445

>  <alias>  (20) 
None

>  <fragmenstein_error>  (20) 
None

>  <scratch_subdir>  (20) 
/opt/xchem-fragalysis-2/maxwin/BulkDock/SCRATCH/282123/C842-P6

>  <energy_score>  (20) 
-20.046609

>  <HIPPO Pose ID>  (20) 
670

>  <ref_mols>  (20) 
A0503a,A0759a

>  <inchikey>  (20) 
ONHPYLWLPZLBPT-SNVBAGLBSA-N

>  <name>  (20) 
ONHPYLWLPZLBPT-SNVBAGLBSA-N

>  <csv_name>  (20) 
2AZ_iter1_frags_knitwork_impure_split1000_batch000.csv

>  <fragmenstein_mode>  (20) 
expansion

>  <exports>  (20) 
['/opt/xchem-fragalysis-2/maxwin/BulkDock/OUTPUTS/2AZ_iter1_frags_knitwork_impure_split1000_batch000_282123.sdf', '/opt/xchem-fragalysis-2/maxwin/BulkDock/OUTPUTS/2AZ_iter1_frags_knitwork_impure_split1000_batch000_282123_fragalysis.sdf']

>  <HIPPO Compound ID>  (20) 
842

>  <original SMILES>  (20) 
C[C@@H](O)CCN(C)Cc1nc2ccccc2[nH]1

>  <fragmenstein_runtime>  (20) 
1.471301

>  <ref_pdb>  (20) 
A0759a

>  <original ID>  (20) 
ONHPYLWLPZLBPT-SNVBAGLBSA-N

>  <tags>  (20) 
['Fragmenstein placed']

>  <fragmenstein_outcome>  (20) 
acceptable

$$$$
671
     RDKit          3D

 16 17  0  0  0  0  0  0  0  0999 V2000
  -33.6038   -3.6678   -3.7669 O   0  0  0  0  0  0  0  0  0  0  0  0
  -33.7361   -4.0483   -5.1322 C   0  0  0  0  0  0  0  0  0  0  0  0
  -32.3572   -4.3373   -5.6874 C   0  0  0  0  0  0  0  0  0  0  0  0
  -32.4077   -4.7849   -7.1388 C   0  0  0  0  0  0  0  0  0  0  0  0
  -31.0241   -4.9309   -7.5646 N   0  0  0  0  0  0  0  0  0  0  0  0
  -30.9037   -5.6277   -8.8427 C   0  0  0  0  0  0  0  0  0  0  0  0
  -29.4290   -5.7530   -9.2411 C   0  0  0  0  0  0  0  0  0  0  0  0
  -28.7609   -4.4670   -9.2581 N   0  0  0  0  0  0  0  0  0  0  0  0
  -27.9291   -3.9869   -8.2840 C   0  0  0  0  0  0  0  0  0  0  0  0
  -27.5226   -2.7661   -8.5516 N   0  0  0  0  0  0  0  0  0  0  0  0
  -28.1310   -2.4433   -9.7421 C   0  0  0  0  0  0  0  0  0  0  0  0
  -28.0437   -1.2756  -10.5040 C   0  0  0  0  0  0  0  0  0  0  0  0
  -28.7957   -1.1831  -11.6768 C   0  0  0  0  0  0  0  0  0  0  0  0
  -29.6348   -2.2166  -12.0811 C   0  0  0  0  0  0  0  0  0  0  0  0
  -29.7146   -3.4019  -11.3529 C   0  0  0  0  0  0  0  0  0  0  0  0
  -28.9383   -3.4832  -10.1933 C   0  0  0  0  0  0  0  0  0  0  0  0
  1  2  1  0
  2  3  1  0
  3  4  1  0
  4  5  1  0
  5  6  1  0
  6  7  1  0
  7  8  1  0
  8  9  1  0
  9 10  2  0
 10 11  1  0
 11 12  2  0
 12 13  1  0
 13 14  2  0
 14 15  1  0
 15 16  2  0
 16  8  1  0
 16 11  1  0
M  END
>  <SLURM_JOB_NAME>  (21) 
BulkDock.place:A71EV2AZ:2AZ_iter1_frags_knitwork_impure_split1000_batch000

>  <SLURM_JOB_ID>  (21) 
282123

>  <distance_score>  (21) 
0.708246

>  <alias>  (21) 
None

>  <fragmenstein_error>  (21) 
None

>  <scratch_subdir>  (21) 
/opt/xchem-fragalysis-2/maxwin/BulkDock/SCRATCH/282123/C843-P5

>  <energy_score>  (21) 
-18.487394

>  <HIPPO Pose ID>  (21) 
671

>  <ref_mols>  (21) 
A0503a,A0759a

>  <inchikey>  (21) 
MDJFAQNWAZYQKE-UHFFFAOYSA-N

>  <name>  (21) 
MDJFAQNWAZYQKE-UHFFFAOYSA-N

>  <csv_name>  (21) 
2AZ_iter1_frags_knitwork_impure_split1000_batch000.csv

>  <fragmenstein_mode>  (21) 
expansion

>  <exports>  (21) 
['/opt/xchem-fragalysis-2/maxwin/BulkDock/OUTPUTS/2AZ_iter1_frags_knitwork_impure_split1000_batch000_282123.sdf', '/opt/xchem-fragalysis-2/maxwin/BulkDock/OUTPUTS/2AZ_iter1_frags_knitwork_impure_split1000_batch000_282123_fragalysis.sdf']

>  <HIPPO Compound ID>  (21) 
843

>  <original SMILES>  (21) 
OCCCNCCn1cnc2ccccc21

>  <fragmenstein_runtime>  (21) 
1.145122

>  <ref_pdb>  (21) 
A0503a

>  <original ID>  (21) 
MDJFAQNWAZYQKE-UHFFFAOYSA-N

>  <tags>  (21) 
['Fragmenstein placed']

>  <fragmenstein_outcome>  (21) 
acceptable

$$$$
672
     RDKit          3D

 16 17  0  0  0  0  0  0  0  0999 V2000
  -33.6056   -3.5405   -3.7487 O   0  0  0  0  0  0  0  0  0  0  0  0
  -33.6643   -3.9833   -5.0960 C   0  0  0  0  0  0  0  0  0  0  0  0
  -32.2658   -4.0438   -5.6810 C   0  0  0  0  0  0  0  0  0  0  0  0
  -32.2907   -4.6752   -7.0637 C   0  0  0  0  0  0  0  0  0  0  0  0
  -30.9180   -4.8259   -7.5130 N   0  0  0  0  0  0  0  0  0  0  0  0
  -30.8313   -5.6456   -8.7232 C   0  0  0  0  0  0  0  0  0  0  0  0
  -29.3684   -5.8535   -9.1284 C   0  0  0  0  0  0  0  0  0  0  0  0
  -28.6501   -4.6005   -9.2313 N   0  0  0  0  0  0  0  0  0  0  0  0
  -27.7711   -4.1071   -8.3072 C   0  0  0  0  0  0  0  0  0  0  0  0
  -27.3408   -2.9103   -8.6373 N   0  0  0  0  0  0  0  0  0  0  0  0
  -27.9850   -2.6183   -9.8159 C   0  0  0  0  0  0  0  0  0  0  0  0
  -27.8882   -1.4892  -10.6286 C   0  0  0  0  0  0  0  0  0  0  0  0
  -28.6619   -1.4350  -11.7887 C   0  0  0  0  0  0  0  0  0  0  0  0
  -29.5326   -2.4629  -12.1363 C   0  0  0  0  0  0  0  0  0  0  0  0
  -29.6298   -3.6072  -11.3498 C   0  0  0  0  0  0  0  0  0  0  0  0
  -28.8290   -3.6542  -10.2037 C   0  0  0  0  0  0  0  0  0  0  0  0
  1  2  1  0
  2  3  1  0
  3  4  1  0
  4  5  1  0
  5  6  1  0
  6  7  1  0
  7  8  1  0
  8  9  1  0
  9 10  2  0
 10 11  1  0
 11 12  2  0
 12 13  1  0
 13 14  2  0
 14 15  1  0
 15 16  2  0
 16  8  1  0
 16 11  1  0
M  END
>  <SLURM_JOB_NAME>  (22) 
BulkDock.place:A71EV2AZ:2AZ_iter1_frags_knitwork_impure_split1000_batch000

>  <SLURM_JOB_ID>  (22) 
282123

>  <distance_score>  (22) 
0.77813

>  <alias>  (22) 
None

>  <fragmenstein_error>  (22) 
None

>  <scratch_subdir>  (22) 
/opt/xchem-fragalysis-2/maxwin/BulkDock/SCRATCH/282123/C843-P6

>  <energy_score>  (22) 
-18.700669

>  <HIPPO Pose ID>  (22) 
672

>  <ref_mols>  (22) 
A0503a,A0759a

>  <inchikey>  (22) 
MDJFAQNWAZYQKE-UHFFFAOYSA-N

>  <name>  (22) 
MDJFAQNWAZYQKE-UHFFFAOYSA-N

>  <csv_name>  (22) 
2AZ_iter1_frags_knitwork_impure_split1000_batch000.csv

>  <fragmenstein_mode>  (22) 
expansion

>  <exports>  (22) 
['/opt/xchem-fragalysis-2/maxwin/BulkDock/OUTPUTS/2AZ_iter1_frags_knitwork_impure_split1000_batch000_282123.sdf', '/opt/xchem-fragalysis-2/maxwin/BulkDock/OUTPUTS/2AZ_iter1_frags_knitwork_impure_split1000_batch000_282123_fragalysis.sdf']

>  <HIPPO Compound ID>  (22) 
843

>  <original SMILES>  (22) 
OCCCNCCn1cnc2ccccc21

>  <fragmenstein_runtime>  (22) 
1.073756

>  <ref_pdb>  (22) 
A0759a

>  <original ID>  (22) 
MDJFAQNWAZYQKE-UHFFFAOYSA-N

>  <tags>  (22) 
['Fragmenstein placed']

>  <fragmenstein_outcome>  (22) 
acceptable

$$$$
679
     RDKit          3D

 16 17  0  0  0  0  0  0  0  0999 V2000
  -33.9350   -4.3791   -7.7071 C   0  0  0  0  0  0  0  0  0  0  0  0
  -32.6300   -5.0019   -7.2033 C   0  0  2  0  0  0  0  0  0  0  0  0
  -32.2256   -4.3791   -5.8537 C   0  0  0  0  0  0  0  0  0  0  0  0
  -33.2710   -4.4633   -4.8912 O   0  0  0  0  0  0  0  0  0  0  0  0
  -31.5600   -4.8372   -8.1935 N   0  0  0  0  0  0  0  0  0  0  0  0
  -30.5287   -5.8694   -8.0621 C   0  0  0  0  0  0  0  0  0  0  0  0
  -29.4032   -5.7290   -9.0883 C   0  0  0  0  0  0  0  0  0  0  0  0
  -28.8034   -4.4133   -9.0975 N   0  0  0  0  0  0  0  0  0  0  0  0
  -27.9425   -3.9215   -8.1567 C   0  0  0  0  0  0  0  0  0  0  0  0
  -27.5092   -2.7216   -8.4730 N   0  0  0  0  0  0  0  0  0  0  0  0
  -28.1348   -2.4222   -9.6619 C   0  0  0  0  0  0  0  0  0  0  0  0
  -28.0309   -1.2839  -10.4671 C   0  0  0  0  0  0  0  0  0  0  0  0
  -28.7932   -1.2124  -11.6351 C   0  0  0  0  0  0  0  0  0  0  0  0
  -29.6557   -2.2428  -11.9958 C   0  0  0  0  0  0  0  0  0  0  0  0
  -29.7564   -3.3987  -11.2224 C   0  0  0  0  0  0  0  0  0  0  0  0
  -28.9728   -3.4579  -10.0649 C   0  0  0  0  0  0  0  0  0  0  0  0
  2  1  1  6
  2  3  1  0
  3  4  1  0
  2  5  1  0
  5  6  1  0
  6  7  1  0
  7  8  1  0
  8  9  1  0
  9 10  2  0
 10 11  1  0
 11 12  2  0
 12 13  1  0
 13 14  2  0
 14 15  1  0
 15 16  2  0
 16  8  1  0
 16 11  1  0
M  END
>  <SLURM_JOB_NAME>  (23) 
BulkDock.place:A71EV2AZ:2AZ_iter1_frags_knitwork_impure_split1000_batch000

>  <SLURM_JOB_ID>  (23) 
282123

>  <distance_score>  (23) 
0.754938

>  <alias>  (23) 
None

>  <fragmenstein_error>  (23) 
None

>  <scratch_subdir>  (23) 
/opt/xchem-fragalysis-2/maxwin/BulkDock/SCRATCH/282123/C848-P5

>  <energy_score>  (23) 
-9.833242

>  <HIPPO Pose ID>  (23) 
679

>  <ref_mols>  (23) 
A0503a,A0759a

>  <inchikey>  (23) 
SNLWHVVYKUWCMG-SNVBAGLBSA-N

>  <name>  (23) 
SNLWHVVYKUWCMG-SNVBAGLBSA-N

>  <csv_name>  (23) 
2AZ_iter1_frags_knitwork_impure_split1000_batch000.csv

>  <fragmenstein_mode>  (23) 
expansion

>  <exports>  (23) 
['/opt/xchem-fragalysis-2/maxwin/BulkDock/OUTPUTS/2AZ_iter1_frags_knitwork_impure_split1000_batch000_282123.sdf', '/opt/xchem-fragalysis-2/maxwin/BulkDock/OUTPUTS/2AZ_iter1_frags_knitwork_impure_split1000_batch000_282123_fragalysis.sdf']

>  <HIPPO Compound ID>  (23) 
848

>  <original SMILES>  (23) 
C[C@H](CO)NCCn1cnc2ccccc21

>  <fragmenstein_runtime>  (23) 
0.804361

>  <ref_pdb>  (23) 
A0503a

>  <original ID>  (23) 
SNLWHVVYKUWCMG-SNVBAGLBSA-N

>  <tags>  (23) 
['Fragmenstein placed']

>  <fragmenstein_outcome>  (23) 
acceptable

$$$$
680
     RDKit          3D

 16 17  0  0  0  0  0  0  0  0999 V2000
  -32.3589   -3.5827   -7.7263 C   0  0  0  0  0  0  0  0  0  0  0  0
  -31.9968   -4.8297   -6.9379 C   0  0  2  0  0  0  0  0  0  0  0  0
  -32.1355   -4.5230   -5.4380 C   0  0  0  0  0  0  0  0  0  0  0  0
  -33.5138   -4.4957   -5.0677 O   0  0  0  0  0  0  0  0  0  0  0  0
  -30.6191   -5.2186   -7.2419 N   0  0  0  0  0  0  0  0  0  0  0  0
  -30.5196   -5.9207   -8.5289 C   0  0  0  0  0  0  0  0  0  0  0  0
  -29.0749   -5.9662   -9.0304 C   0  0  0  0  0  0  0  0  0  0  0  0
  -28.4977   -4.6417   -9.1429 N   0  0  0  0  0  0  0  0  0  0  0  0
  -27.6294   -4.0793   -8.2478 C   0  0  0  0  0  0  0  0  0  0  0  0
  -27.3027   -2.8548   -8.5911 N   0  0  0  0  0  0  0  0  0  0  0  0
  -27.9927   -2.6198   -9.7568 C   0  0  0  0  0  0  0  0  0  0  0  0
  -27.9839   -1.4976  -10.5862 C   0  0  0  0  0  0  0  0  0  0  0  0
  -28.7787   -1.5090  -11.7333 C   0  0  0  0  0  0  0  0  0  0  0  0
  -29.5935   -2.5929  -12.0447 C   0  0  0  0  0  0  0  0  0  0  0  0
  -29.6051   -3.7300  -11.2388 C   0  0  0  0  0  0  0  0  0  0  0  0
  -28.7757   -3.7150  -10.1119 C   0  0  0  0  0  0  0  0  0  0  0  0
  2  1  1  6
  2  3  1  0
  3  4  1  0
  2  5  1  0
  5  6  1  0
  6  7  1  0
  7  8  1  0
  8  9  1  0
  9 10  2  0
 10 11  1  0
 11 12  2  0
 12 13  1  0
 13 14  2  0
 14 15  1  0
 15 16  2  0
 16  8  1  0
 16 11  1  0
M  END
>  <SLURM_JOB_NAME>  (24) 
BulkDock.place:A71EV2AZ:2AZ_iter1_frags_knitwork_impure_split1000_batch000

>  <SLURM_JOB_ID>  (24) 
282123

>  <distance_score>  (24) 
0.9981

>  <alias>  (24) 
None

>  <fragmenstein_error>  (24) 
None

>  <scratch_subdir>  (24) 
/opt/xchem-fragalysis-2/maxwin/BulkDock/SCRATCH/282123/C848-P6

>  <energy_score>  (24) 
-11.733037

>  <HIPPO Pose ID>  (24) 
680

>  <ref_mols>  (24) 
A0503a,A0759a

>  <inchikey>  (24) 
SNLWHVVYKUWCMG-SNVBAGLBSA-N

>  <name>  (24) 
SNLWHVVYKUWCMG-SNVBAGLBSA-N

>  <csv_name>  (24) 
2AZ_iter1_frags_knitwork_impure_split1000_batch000.csv

>  <fragmenstein_mode>  (24) 
expansion

>  <exports>  (24) 
['/opt/xchem-fragalysis-2/maxwin/BulkDock/OUTPUTS/2AZ_iter1_frags_knitwork_impure_split1000_batch000_282123.sdf', '/opt/xchem-fragalysis-2/maxwin/BulkDock/OUTPUTS/2AZ_iter1_frags_knitwork_impure_split1000_batch000_282123_fragalysis.sdf']

>  <HIPPO Compound ID>  (24) 
848

>  <original SMILES>  (24) 
C[C@H](CO)NCCn1cnc2ccccc21

>  <fragmenstein_runtime>  (24) 
1.059291

>  <ref_pdb>  (24) 
A0759a

>  <original ID>  (24) 
SNLWHVVYKUWCMG-SNVBAGLBSA-N

>  <tags>  (24) 
['Fragmenstein placed']

>  <fragmenstein_outcome>  (24) 
acceptable

$$$$
684
     RDKit          3D

 17 18  0  0  0  0  0  0  0  0999 V2000
  -33.0913   -5.6268   -2.3320 C   0  0  0  0  0  0  0  0  0  0  0  0
  -33.6217   -4.3990   -3.0545 C   0  0  0  0  0  0  0  0  0  0  0  0
  -32.6771   -3.8520   -4.1426 C   0  0  2  0  0  0  0  0  0  0  0  0
  -33.2673   -2.6262   -4.5754 O   0  0  0  0  0  0  0  0  0  0  0  0
  -32.4736   -4.8856   -5.2860 C   0  0  0  0  0  0  0  0  0  0  0  0
  -31.7060   -4.5405   -6.4906 N   0  0  0  0  0  0  0  0  0  0  0  0
  -32.4699   -3.7830   -7.4670 C   0  0  0  0  0  0  0  0  0  0  0  0
  -30.3176   -4.0772   -6.2872 C   0  0  0  0  0  0  0  0  0  0  0  0
  -29.5771   -3.7641   -7.5740 C   0  0  0  0  0  0  0  0  0  0  0  0
  -28.8566   -2.6862   -7.8383 N   0  0  0  0  0  0  0  0  0  0  0  0
  -28.8498   -2.5941   -9.2144 C   0  0  0  0  0  0  0  0  0  0  0  0
  -28.4061   -1.5627  -10.0510 C   0  0  0  0  0  0  0  0  0  0  0  0
  -28.6781   -1.6349  -11.4208 C   0  0  0  0  0  0  0  0  0  0  0  0
  -29.3557   -2.7287  -11.9544 C   0  0  0  0  0  0  0  0  0  0  0  0
  -29.7317   -3.8104  -11.1525 C   0  0  0  0  0  0  0  0  0  0  0  0
  -29.4644   -3.6990   -9.7872 C   0  0  0  0  0  0  0  0  0  0  0  0
  -29.7505   -4.5122   -8.7199 N   0  0  0  0  0  0  0  0  0  0  0  0
  1  2  1  0
  2  3  1  0
  3  4  1  6
  3  5  1  0
  5  6  1  0
  6  7  1  0
  6  8  1  0
  8  9  1  0
  9 10  2  0
 10 11  1  0
 11 12  2  0
 12 13  1  0
 13 14  2  0
 14 15  1  0
 15 16  2  0
 16 17  1  0
 17  9  1  0
 16 11  1  0
M  END
>  <SLURM_JOB_NAME>  (25) 
BulkDock.place:A71EV2AZ:2AZ_iter1_frags_knitwork_impure_split1000_batch000

>  <SLURM_JOB_ID>  (25) 
282123

>  <distance_score>  (25) 
0.881241

>  <alias>  (25) 
None

>  <fragmenstein_error>  (25) 
None

>  <scratch_subdir>  (25) 
/opt/xchem-fragalysis-2/maxwin/BulkDock/SCRATCH/282123/C850-P6

>  <energy_score>  (25) 
-22.778627

>  <HIPPO Pose ID>  (25) 
684

>  <ref_mols>  (25) 
A0503a,A0759a

>  <inchikey>  (25) 
OMZAOSAWECJNKX-JTQLQIEISA-N

>  <name>  (25) 
OMZAOSAWECJNKX-JTQLQIEISA-N

>  <csv_name>  (25) 
2AZ_iter1_frags_knitwork_impure_split1000_batch000.csv

>  <fragmenstein_mode>  (25) 
expansion

>  <exports>  (25) 
['/opt/xchem-fragalysis-2/maxwin/BulkDock/OUTPUTS/2AZ_iter1_frags_knitwork_impure_split1000_batch000_282123.sdf', '/opt/xchem-fragalysis-2/maxwin/BulkDock/OUTPUTS/2AZ_iter1_frags_knitwork_impure_split1000_batch000_282123_fragalysis.sdf']

>  <HIPPO Compound ID>  (25) 
850

>  <original SMILES>  (25) 
CC[C@H](O)CN(C)Cc1nc2ccccc2[nH]1

>  <fragmenstein_runtime>  (25) 
1.819111

>  <ref_pdb>  (25) 
A0759a

>  <original ID>  (25) 
OMZAOSAWECJNKX-JTQLQIEISA-N

>  <tags>  (25) 
['Fragmenstein placed']

>  <fragmenstein_outcome>  (25) 
acceptable

$$$$
699
     RDKit          3D

 16 17  0  0  0  0  0  0  0  0999 V2000
  -34.1544   -4.6193   -3.3315 C   0  0  0  0  0  0  0  0  0  0  0  0
  -33.2927   -3.8086   -4.2939 C   0  0  1  0  0  0  0  0  0  0  0  0
  -32.6536   -2.7754   -3.5345 O   0  0  0  0  0  0  0  0  0  0  0  0
  -32.2366   -4.7002   -5.0065 C   0  0  0  0  0  0  0  0  0  0  0  0
  -31.6492   -4.0865   -6.2221 N   0  0  0  0  0  0  0  0  0  0  0  0
  -32.5723   -4.2673   -7.3453 C   0  0  0  0  0  0  0  0  0  0  0  0
  -30.2960   -4.6305   -6.5206 C   0  0  0  0  0  0  0  0  0  0  0  0
  -29.6236   -4.0015   -7.7230 C   0  0  0  0  0  0  0  0  0  0  0  0
  -28.8005   -2.9657   -7.7655 N   0  0  0  0  0  0  0  0  0  0  0  0
  -28.7429   -2.6073   -9.0952 C   0  0  0  0  0  0  0  0  0  0  0  0
  -28.1598   -1.4899   -9.7036 C   0  0  0  0  0  0  0  0  0  0  0  0
  -28.4053   -1.2566  -11.0613 C   0  0  0  0  0  0  0  0  0  0  0  0
  -29.1911   -2.1357  -11.8057 C   0  0  0  0  0  0  0  0  0  0  0  0
  -29.7041   -3.3062  -11.2409 C   0  0  0  0  0  0  0  0  0  0  0  0
  -29.4628   -3.4953   -9.8806 C   0  0  0  0  0  0  0  0  0  0  0  0
  -29.8770   -4.4561   -8.9995 N   0  0  0  0  0  0  0  0  0  0  0  0
  2  1  1  1
  2  3  1  0
  2  4  1  0
  4  5  1  0
  5  6  1  0
  5  7  1  0
  7  8  1  0
  8  9  2  0
  9 10  1  0
 10 11  2  0
 11 12  1  0
 12 13  2  0
 13 14  1  0
 14 15  2  0
 15 16  1  0
 16  8  1  0
 15 10  1  0
M  END
>  <SLURM_JOB_NAME>  (26) 
BulkDock.place:A71EV2AZ:2AZ_iter1_frags_knitwork_impure_split1000_batch000

>  <SLURM_JOB_ID>  (26) 
282123

>  <distance_score>  (26) 
0.948473

>  <alias>  (26) 
None

>  <fragmenstein_error>  (26) 
None

>  <scratch_subdir>  (26) 
/opt/xchem-fragalysis-2/maxwin/BulkDock/SCRATCH/282123/C860-P5

>  <energy_score>  (26) 
-8.988357

>  <HIPPO Pose ID>  (26) 
699

>  <ref_mols>  (26) 
A0503a,A0759a

>  <inchikey>  (26) 
MDIWFRILBHJUBL-SECBINFHSA-N

>  <name>  (26) 
MDIWFRILBHJUBL-SECBINFHSA-N

>  <csv_name>  (26) 
2AZ_iter1_frags_knitwork_impure_split1000_batch000.csv

>  <fragmenstein_mode>  (26) 
expansion

>  <exports>  (26) 
['/opt/xchem-fragalysis-2/maxwin/BulkDock/OUTPUTS/2AZ_iter1_frags_knitwork_impure_split1000_batch000_282123.sdf', '/opt/xchem-fragalysis-2/maxwin/BulkDock/OUTPUTS/2AZ_iter1_frags_knitwork_impure_split1000_batch000_282123_fragalysis.sdf']

>  <HIPPO Compound ID>  (26) 
860

>  <original SMILES>  (26) 
C[C@@H](O)CN(C)Cc1nc2ccccc2[nH]1

>  <fragmenstein_runtime>  (26) 
1.164373

>  <ref_pdb>  (26) 
A0503a

>  <original ID>  (26) 
MDIWFRILBHJUBL-SECBINFHSA-N

>  <tags>  (26) 
['Fragmenstein placed']

>  <fragmenstein_outcome>  (26) 
acceptable

$$$$
700
     RDKit          3D

 16 17  0  0  0  0  0  0  0  0999 V2000
  -33.9554   -4.3345   -3.1206 C   0  0  0  0  0  0  0  0  0  0  0  0
  -33.4514   -3.6945   -4.4069 C   0  0  1  0  0  0  0  0  0  0  0  0
  -33.1908   -2.3108   -4.1435 O   0  0  0  0  0  0  0  0  0  0  0  0
  -32.1723   -4.3952   -4.9364 C   0  0  0  0  0  0  0  0  0  0  0  0
  -31.6123   -3.8006   -6.1734 N   0  0  0  0  0  0  0  0  0  0  0  0
  -32.4863   -4.0556   -7.3185 C   0  0  0  0  0  0  0  0  0  0  0  0
  -30.2249   -4.3009   -6.4211 C   0  0  0  0  0  0  0  0  0  0  0  0
  -29.6006   -3.8195   -7.7109 C   0  0  0  0  0  0  0  0  0  0  0  0
  -28.8698   -2.7381   -7.9244 N   0  0  0  0  0  0  0  0  0  0  0  0
  -28.8619   -2.5786   -9.2954 C   0  0  0  0  0  0  0  0  0  0  0  0
  -28.3710   -1.5350  -10.0869 C   0  0  0  0  0  0  0  0  0  0  0  0
  -28.6208   -1.5517  -11.4632 C   0  0  0  0  0  0  0  0  0  0  0  0
  -29.3319   -2.5967  -12.0480 C   0  0  0  0  0  0  0  0  0  0  0  0
  -29.7609   -3.6890  -11.2923 C   0  0  0  0  0  0  0  0  0  0  0  0
  -29.5063   -3.6354   -9.9220 C   0  0  0  0  0  0  0  0  0  0  0  0
  -29.8175   -4.4865   -8.8979 N   0  0  0  0  0  0  0  0  0  0  0  0
  2  1  1  1
  2  3  1  0
  2  4  1  0
  4  5  1  0
  5  6  1  0
  5  7  1  0
  7  8  1  0
  8  9  2  0
  9 10  1  0
 10 11  2  0
 11 12  1  0
 12 13  2  0
 13 14  1  0
 14 15  2  0
 15 16  1  0
 16  8  1  0
 15 10  1  0
M  END
>  <SLURM_JOB_NAME>  (27) 
BulkDock.place:A71EV2AZ:2AZ_iter1_frags_knitwork_impure_split1000_batch000

>  <SLURM_JOB_ID>  (27) 
282123

>  <distance_score>  (27) 
0.910162

>  <alias>  (27) 
None

>  <fragmenstein_error>  (27) 
None

>  <scratch_subdir>  (27) 
/opt/xchem-fragalysis-2/maxwin/BulkDock/SCRATCH/282123/C860-P6

>  <energy_score>  (27) 
-15.932466

>  <HIPPO Pose ID>  (27) 
700

>  <ref_mols>  (27) 
A0503a,A0759a

>  <inchikey>  (27) 
MDIWFRILBHJUBL-SECBINFHSA-N

>  <name>  (27) 
MDIWFRILBHJUBL-SECBINFHSA-N

>  <csv_name>  (27) 
2AZ_iter1_frags_knitwork_impure_split1000_batch000.csv

>  <fragmenstein_mode>  (27) 
expansion

>  <exports>  (27) 
['/opt/xchem-fragalysis-2/maxwin/BulkDock/OUTPUTS/2AZ_iter1_frags_knitwork_impure_split1000_batch000_282123.sdf', '/opt/xchem-fragalysis-2/maxwin/BulkDock/OUTPUTS/2AZ_iter1_frags_knitwork_impure_split1000_batch000_282123_fragalysis.sdf']

>  <HIPPO Compound ID>  (27) 
860

>  <original SMILES>  (27) 
C[C@@H](O)CN(C)Cc1nc2ccccc2[nH]1

>  <fragmenstein_runtime>  (27) 
1.381489

>  <ref_pdb>  (27) 
A0759a

>  <original ID>  (27) 
MDIWFRILBHJUBL-SECBINFHSA-N

>  <tags>  (27) 
['Fragmenstein placed']

>  <fragmenstein_outcome>  (27) 
acceptable

$$$$
711
     RDKit          3D

 20 21  0  0  0  0  0  0  0  0999 V2000
  -34.4370   -5.7562   -5.2005 C   0  0  0  0  0  0  0  0  0  0  0  0
  -33.7080   -4.4173   -5.0707 C   0  0  2  0  0  0  0  0  0  0  0  0
  -34.4128   -3.4631   -5.8901 O   0  0  0  0  0  0  0  0  0  0  0  0
  -32.2560   -4.4910   -5.5762 C   0  0  0  0  0  0  0  0  0  0  0  0
  -32.1878   -4.7909   -7.0128 N   0  0  0  0  0  0  0  0  0  0  0  0
  -30.8856   -4.4102   -7.5498 C   0  0  0  0  0  0  0  0  0  0  0  0
  -29.7997   -5.4495   -7.2099 C   0  0  0  0  0  0  0  0  0  0  0  0
  -28.3627   -4.9139   -7.3488 C   0  0  0  0  0  0  0  0  0  0  0  0
  -28.2120   -4.1422   -8.6030 C   0  0  0  0  0  0  0  0  0  0  0  0
  -27.7152   -2.9308   -8.7429 N   0  0  0  0  0  0  0  0  0  0  0  0
  -28.1968   -2.5008   -9.9563 C   0  0  0  0  0  0  0  0  0  0  0  0
  -28.0571   -1.2732  -10.6002 C   0  0  0  0  0  0  0  0  0  0  0  0
  -28.7592   -1.0798  -11.7917 C   0  0  0  0  0  0  0  0  0  0  0  0
  -29.6159   -2.0506  -12.3073 C   0  0  0  0  0  0  0  0  0  0  0  0
  -29.7345   -3.2948  -11.7019 C   0  0  0  0  0  0  0  0  0  0  0  0
  -28.9700   -3.4843  -10.5580 C   0  0  0  0  0  0  0  0  0  0  0  0
  -28.7825   -4.5807   -9.7723 N   0  0  0  0  0  0  0  0  0  0  0  0
  -33.6629   -3.9757   -3.6006 C   0  0  0  0  0  0  0  0  0  0  0  0
  -33.0885   -2.7474   -3.4939 F   0  0  0  0  0  0  0  0  0  0  0  0
  -34.9266   -3.8525   -3.1229 F   0  0  0  0  0  0  0  0  0  0  0  0
  2  1  1  1
  2  3  1  0
  2  4  1  0
  4  5  1  0
  5  6  1  0
  6  7  1  0
  7  8  1  0
  8  9  1  0
  9 10  2  0
 10 11  1  0
 11 12  2  0
 12 13  1  0
 13 14  2  0
 14 15  1  0
 15 16  2  0
 16 17  1  0
  2 18  1  0
 18 19  1  0
 18 20  1  0
 17  9  1  0
 16 11  1  0
M  END
>  <SLURM_JOB_NAME>  (28) 
BulkDock.place:A71EV2AZ:2AZ_iter1_frags_knitwork_impure_split1000_batch000

>  <SLURM_JOB_ID>  (28) 
282123

>  <distance_score>  (28) 
0.980018

>  <alias>  (28) 
None

>  <fragmenstein_error>  (28) 
None

>  <scratch_subdir>  (28) 
/opt/xchem-fragalysis-2/maxwin/BulkDock/SCRATCH/282123/C873-P5

>  <energy_score>  (28) 
-28.61934

>  <HIPPO Pose ID>  (28) 
711

>  <ref_mols>  (28) 
A0503a,A0759a

>  <inchikey>  (28) 
MCMGHHOHFIQMGN-AWEZNQCLSA-N

>  <name>  (28) 
MCMGHHOHFIQMGN-AWEZNQCLSA-N

>  <csv_name>  (28) 
2AZ_iter1_frags_knitwork_impure_split1000_batch000.csv

>  <fragmenstein_mode>  (28) 
expansion

>  <exports>  (28) 
['/opt/xchem-fragalysis-2/maxwin/BulkDock/OUTPUTS/2AZ_iter1_frags_knitwork_impure_split1000_batch000_282123.sdf', '/opt/xchem-fragalysis-2/maxwin/BulkDock/OUTPUTS/2AZ_iter1_frags_knitwork_impure_split1000_batch000_282123_fragalysis.sdf']

>  <HIPPO Compound ID>  (28) 
873

>  <original SMILES>  (28) 
C[C@](O)(CNCCCc1nc2ccccc2[nH]1)C(F)F

>  <fragmenstein_runtime>  (28) 
1.805397

>  <ref_pdb>  (28) 
A0503a

>  <original ID>  (28) 
MCMGHHOHFIQMGN-AWEZNQCLSA-N

>  <tags>  (28) 
['Fragmenstein placed']

>  <fragmenstein_outcome>  (28) 
acceptable

$$$$
715
     RDKit          3D

 15 16  0  0  0  0  0  0  0  0999 V2000
  -33.3723   -4.1220   -4.9946 O   0  0  0  0  0  0  0  0  0  0  0  0
  -32.2341   -4.4131   -5.7980 C   0  0  0  0  0  0  0  0  0  0  0  0
  -32.6047   -4.4592   -7.2838 C   0  0  0  0  0  0  0  0  0  0  0  0
  -31.4555   -4.4817   -8.1753 N   0  0  0  0  0  0  0  0  0  0  0  0
  -30.6478   -5.6956   -8.0807 C   0  0  0  0  0  0  0  0  0  0  0  0
  -29.4696   -5.6971   -9.0625 C   0  0  0  0  0  0  0  0  0  0  0  0
  -28.7823   -4.4238   -9.1150 N   0  0  0  0  0  0  0  0  0  0  0  0
  -27.9170   -3.9404   -8.1745 C   0  0  0  0  0  0  0  0  0  0  0  0
  -27.4680   -2.7468   -8.4943 N   0  0  0  0  0  0  0  0  0  0  0  0
  -28.0944   -2.4388   -9.6806 C   0  0  0  0  0  0  0  0  0  0  0  0
  -27.9924   -1.2947  -10.4780 C   0  0  0  0  0  0  0  0  0  0  0  0
  -28.7627   -1.2110  -11.6402 C   0  0  0  0  0  0  0  0  0  0  0  0
  -29.6274   -2.2376  -12.0056 C   0  0  0  0  0  0  0  0  0  0  0  0
  -29.7240   -3.4004  -11.2424 C   0  0  0  0  0  0  0  0  0  0  0  0
  -28.9364   -3.4693  -10.0876 C   0  0  0  0  0  0  0  0  0  0  0  0
  1  2  1  0
  2  3  1  0
  3  4  1  0
  4  5  1  0
  5  6  1  0
  6  7  1  0
  7  8  1  0
  8  9  2  0
  9 10  1  0
 10 11  2  0
 11 12  1  0
 12 13  2  0
 13 14  1  0
 14 15  2  0
 15  7  1  0
 15 10  1  0
M  END
>  <SLURM_JOB_NAME>  (29) 
BulkDock.place:A71EV2AZ:2AZ_iter1_frags_knitwork_impure_split1000_batch000

>  <SLURM_JOB_ID>  (29) 
282123

>  <distance_score>  (29) 
0.67451

>  <alias>  (29) 
None

>  <fragmenstein_error>  (29) 
None

>  <scratch_subdir>  (29) 
/opt/xchem-fragalysis-2/maxwin/BulkDock/SCRATCH/282123/C876-P5

>  <energy_score>  (29) 
-17.059124

>  <HIPPO Pose ID>  (29) 
715

>  <ref_mols>  (29) 
A0503a,A0759a

>  <inchikey>  (29) 
VAGNNYIPSLSJCE-UHFFFAOYSA-N

>  <name>  (29) 
VAGNNYIPSLSJCE-UHFFFAOYSA-N

>  <csv_name>  (29) 
2AZ_iter1_frags_knitwork_impure_split1000_batch000.csv

>  <fragmenstein_mode>  (29) 
expansion

>  <exports>  (29) 
['/opt/xchem-fragalysis-2/maxwin/BulkDock/OUTPUTS/2AZ_iter1_frags_knitwork_impure_split1000_batch000_282123.sdf', '/opt/xchem-fragalysis-2/maxwin/BulkDock/OUTPUTS/2AZ_iter1_frags_knitwork_impure_split1000_batch000_282123_fragalysis.sdf']

>  <HIPPO Compound ID>  (29) 
876

>  <original SMILES>  (29) 
OCCNCCn1cnc2ccccc21

>  <fragmenstein_runtime>  (29) 
0.649608

>  <ref_pdb>  (29) 
A0503a

>  <original ID>  (29) 
VAGNNYIPSLSJCE-UHFFFAOYSA-N

>  <tags>  (29) 
['Fragmenstein placed']

>  <fragmenstein_outcome>  (29) 
acceptable

$$$$
716
     RDKit          3D

 15 16  0  0  0  0  0  0  0  0999 V2000
  -33.2871   -4.1134   -4.9820 O   0  0  0  0  0  0  0  0  0  0  0  0
  -32.1226   -4.0104   -5.8026 C   0  0  0  0  0  0  0  0  0  0  0  0
  -32.4578   -4.5766   -7.1785 C   0  0  0  0  0  0  0  0  0  0  0  0
  -31.3446   -4.6041   -8.1137 N   0  0  0  0  0  0  0  0  0  0  0  0
  -30.4770   -5.7648   -7.9220 C   0  0  0  0  0  0  0  0  0  0  0  0
  -29.3378   -5.8124   -8.9445 C   0  0  0  0  0  0  0  0  0  0  0  0
  -28.6516   -4.5449   -9.0720 N   0  0  0  0  0  0  0  0  0  0  0  0
  -27.7402   -4.0379   -8.1893 C   0  0  0  0  0  0  0  0  0  0  0  0
  -27.2896   -2.8648   -8.5741 N   0  0  0  0  0  0  0  0  0  0  0  0
  -27.9613   -2.5980   -9.7450 C   0  0  0  0  0  0  0  0  0  0  0  0
  -27.8628   -1.4988  -10.6003 C   0  0  0  0  0  0  0  0  0  0  0  0
  -28.6617   -1.4654  -11.7448 C   0  0  0  0  0  0  0  0  0  0  0  0
  -29.5556   -2.4898  -12.0387 C   0  0  0  0  0  0  0  0  0  0  0  0
  -29.6563   -3.6048  -11.2096 C   0  0  0  0  0  0  0  0  0  0  0  0
  -28.8332   -3.6304  -10.0768 C   0  0  0  0  0  0  0  0  0  0  0  0
  1  2  1  0
  2  3  1  0
  3  4  1  0
  4  5  1  0
  5  6  1  0
  6  7  1  0
  7  8  1  0
  8  9  2  0
  9 10  1  0
 10 11  2  0
 11 12  1  0
 12 13  2  0
 13 14  1  0
 14 15  2  0
 15  7  1  0
 15 10  1  0
M  END
>  <SLURM_JOB_NAME>  (30) 
BulkDock.place:A71EV2AZ:2AZ_iter1_frags_knitwork_impure_split1000_batch000

>  <SLURM_JOB_ID>  (30) 
282123

>  <distance_score>  (30) 
0.640607

>  <alias>  (30) 
None

>  <fragmenstein_error>  (30) 
None

>  <scratch_subdir>  (30) 
/opt/xchem-fragalysis-2/maxwin/BulkDock/SCRATCH/282123/C876-P6

>  <energy_score>  (30) 
-19.252275

>  <HIPPO Pose ID>  (30) 
716

>  <ref_mols>  (30) 
A0503a,A0759a

>  <inchikey>  (30) 
VAGNNYIPSLSJCE-UHFFFAOYSA-N

>  <name>  (30) 
VAGNNYIPSLSJCE-UHFFFAOYSA-N

>  <csv_name>  (30) 
2AZ_iter1_frags_knitwork_impure_split1000_batch000.csv

>  <fragmenstein_mode>  (30) 
expansion

>  <exports>  (30) 
['/opt/xchem-fragalysis-2/maxwin/BulkDock/OUTPUTS/2AZ_iter1_frags_knitwork_impure_split1000_batch000_282123.sdf', '/opt/xchem-fragalysis-2/maxwin/BulkDock/OUTPUTS/2AZ_iter1_frags_knitwork_impure_split1000_batch000_282123_fragalysis.sdf']

>  <HIPPO Compound ID>  (30) 
876

>  <original SMILES>  (30) 
OCCNCCn1cnc2ccccc21

>  <fragmenstein_runtime>  (30) 
1.025657

>  <ref_pdb>  (30) 
A0759a

>  <original ID>  (30) 
VAGNNYIPSLSJCE-UHFFFAOYSA-N

>  <tags>  (30) 
['Fragmenstein placed']

>  <fragmenstein_outcome>  (30) 
acceptable

$$$$
717
     RDKit          3D

 16 17  0  0  0  0  0  0  0  0999 V2000
  -33.2993   -2.5281   -3.4908 O   0  0  0  0  0  0  0  0  0  0  0  0
  -33.4626   -3.9344   -3.3889 C   0  0  0  0  0  0  0  0  0  0  0  0
  -33.5110   -4.5902   -4.7617 C   0  0  0  0  0  0  0  0  0  0  0  0
  -32.2336   -4.3227   -5.5484 C   0  0  0  0  0  0  0  0  0  0  0  0
  -32.2313   -5.1389   -6.7557 N   0  0  0  0  0  0  0  0  0  0  0  0
  -31.2612   -4.6515   -7.7258 C   0  0  0  0  0  0  0  0  0  0  0  0
  -29.7704   -4.8651   -7.3652 C   0  0  0  0  0  0  0  0  0  0  0  0
  -28.9661   -4.2738   -8.4693 C   0  0  0  0  0  0  0  0  0  0  0  0
  -28.2424   -3.1703   -8.4531 N   0  0  0  0  0  0  0  0  0  0  0  0
  -28.3991   -2.6612   -9.7226 C   0  0  0  0  0  0  0  0  0  0  0  0
  -28.0237   -1.4309  -10.2619 C   0  0  0  0  0  0  0  0  0  0  0  0
  -28.5021   -1.1018  -11.5339 C   0  0  0  0  0  0  0  0  0  0  0  0
  -29.3575   -1.9515  -12.2336 C   0  0  0  0  0  0  0  0  0  0  0  0
  -29.6782   -3.2115  -11.7456 C   0  0  0  0  0  0  0  0  0  0  0  0
  -29.1375   -3.5334  -10.5100 C   0  0  0  0  0  0  0  0  0  0  0  0
  -29.2094   -4.6717   -9.7619 N   0  0  0  0  0  0  0  0  0  0  0  0
  1  2  1  0
  2  3  1  0
  3  4  1  0
  4  5  1  0
  5  6  1  0
  6  7  1  0
  7  8  1  0
  8  9  2  0
  9 10  1  0
 10 11  2  0
 11 12  1  0
 12 13  2  0
 13 14  1  0
 14 15  2  0
 15 16  1  0
 16  8  1  0
 15 10  1  0
M  END
>  <SLURM_JOB_NAME>  (31) 
BulkDock.place:A71EV2AZ:2AZ_iter1_frags_knitwork_impure_split1000_batch000

>  <SLURM_JOB_ID>  (31) 
282123

>  <distance_score>  (31) 
0.96029

>  <alias>  (31) 
None

>  <fragmenstein_error>  (31) 
None

>  <scratch_subdir>  (31) 
/opt/xchem-fragalysis-2/maxwin/BulkDock/SCRATCH/282123/C881-P5

>  <energy_score>  (31) 
-10.214939

>  <HIPPO Pose ID>  (31) 
717

>  <ref_mols>  (31) 
A0503a,A0759a

>  <inchikey>  (31) 
HFYRFGURHQNLDS-UHFFFAOYSA-N

>  <name>  (31) 
HFYRFGURHQNLDS-UHFFFAOYSA-N

>  <csv_name>  (31) 
2AZ_iter1_frags_knitwork_impure_split1000_batch000.csv

>  <fragmenstein_mode>  (31) 
expansion

>  <exports>  (31) 
['/opt/xchem-fragalysis-2/maxwin/BulkDock/OUTPUTS/2AZ_iter1_frags_knitwork_impure_split1000_batch000_282123.sdf', '/opt/xchem-fragalysis-2/maxwin/BulkDock/OUTPUTS/2AZ_iter1_frags_knitwork_impure_split1000_batch000_282123_fragalysis.sdf']

>  <HIPPO Compound ID>  (31) 
881

>  <original SMILES>  (31) 
OCCCNCCc1nc2ccccc2[nH]1

>  <fragmenstein_runtime>  (31) 
1.45049

>  <ref_pdb>  (31) 
A0503a

>  <original ID>  (31) 
HFYRFGURHQNLDS-UHFFFAOYSA-N

>  <tags>  (31) 
['Fragmenstein placed']

>  <fragmenstein_outcome>  (31) 
acceptable

$$$$
739
     RDKit          3D

 21 23  0  0  0  0  0  0  0  0999 V2000
  -34.9669   -3.7584   -2.3342 C   0  0  0  0  0  0  0  0  0  0  0  0
  -34.5798   -4.0005   -3.7172 N   0  0  0  0  0  0  0  0  0  0  0  0
  -33.1361   -4.2507   -3.8317 C   0  0  0  0  0  0  0  0  0  0  0  0
  -32.7633   -4.7400   -5.2477 C   0  0  2  0  0  0  0  0  0  0  0  0
  -33.3610   -6.0369   -5.4540 O   0  0  0  0  0  0  0  0  0  0  0  0
  -31.2184   -4.8330   -5.3907 C   0  0  0  0  0  0  0  0  0  0  0  0
  -30.7520   -5.7267   -6.4792 N   0  0  0  0  0  0  0  0  0  0  0  0
  -29.2802   -5.8453   -6.5042 C   0  0  0  0  0  0  0  0  0  0  0  0
  -28.6008   -4.8710   -7.4768 C   0  0  0  0  0  0  0  0  0  0  0  0
  -29.0469   -5.0563   -8.9651 C   0  0  0  0  0  0  0  0  0  0  0  0
  -28.9058   -3.7713   -9.8229 C   0  0  0  0  0  0  0  0  0  0  0  0
  -27.9208   -2.8278   -9.4171 C   0  0  0  0  0  0  0  0  0  0  0  0
  -27.6039   -1.6844  -10.1402 C   0  0  0  0  0  0  0  0  0  0  0  0
  -28.2394   -1.4041  -11.3326 C   0  0  0  0  0  0  0  0  0  0  0  0
  -29.2110   -2.3032  -11.7619 C   0  0  0  0  0  0  0  0  0  0  0  0
  -29.9613   -2.2266  -12.9152 N   0  0  0  0  0  0  0  0  0  0  0  0
  -30.8156   -3.2866  -12.9804 C   0  0  0  0  0  0  0  0  0  0  0  0
  -30.5651   -4.0846  -11.8857 C   0  0  0  0  0  0  0  0  0  0  0  0
  -29.5676   -3.4660  -11.0614 C   0  0  0  0  0  0  0  0  0  0  0  0
  -30.4190   -5.7419   -8.9585 C   0  0  0  0  0  0  0  0  0  0  0  0
  -31.2546   -5.2735   -7.7789 C   0  0  0  0  0  0  0  0  0  0  0  0
  1  2  1  0
  2  3  1  0
  3  4  1  0
  4  5  1  1
  4  6  1  0
  6  7  1  0
  7  8  1  0
  8  9  1  0
  9 10  1  0
 10 11  1  0
 11 12  2  0
 12 13  1  0
 13 14  2  0
 14 15  1  0
 15 16  1  0
 16 17  1  0
 17 18  2  0
 18 19  1  0
 10 20  1  0
 20 21  1  0
 21  7  1  0
 19 11  1  0
 19 15  2  0
M  END
>  <SLURM_JOB_NAME>  (32) 
BulkDock.place:A71EV2AZ:2AZ_iter1_frags_knitwork_impure_split1000_batch000

>  <SLURM_JOB_ID>  (32) 
282123

>  <distance_score>  (32) 
0.89679

>  <alias>  (32) 
None

>  <fragmenstein_error>  (32) 
None

>  <scratch_subdir>  (32) 
/opt/xchem-fragalysis-2/maxwin/BulkDock/SCRATCH/282123/C908-P1

>  <energy_score>  (32) 
-32.889571

>  <HIPPO Pose ID>  (32) 
739

>  <ref_mols>  (32) 
A0229a,A0759a

>  <inchikey>  (32) 
OYQBJTDDXNSVCT-AWEZNQCLSA-N

>  <name>  (32) 
OYQBJTDDXNSVCT-AWEZNQCLSA-N

>  <csv_name>  (32) 
2AZ_iter1_frags_knitwork_impure_split1000_batch000.csv

>  <fragmenstein_mode>  (32) 
expansion

>  <exports>  (32) 
['/opt/xchem-fragalysis-2/maxwin/BulkDock/OUTPUTS/2AZ_iter1_frags_knitwork_impure_split1000_batch000_282123.sdf', '/opt/xchem-fragalysis-2/maxwin/BulkDock/OUTPUTS/2AZ_iter1_frags_knitwork_impure_split1000_batch000_282123_fragalysis.sdf']

>  <HIPPO Compound ID>  (32) 
908

>  <original SMILES>  (32) 
CNC[C@H](O)CN1CCC(c2cccc3[nH]ccc23)CC1

>  <fragmenstein_runtime>  (32) 
1.451245

>  <ref_pdb>  (32) 
A0229a

>  <original ID>  (32) 
OYQBJTDDXNSVCT-AWEZNQCLSA-N

>  <tags>  (32) 
['Fragmenstein placed']

>  <fragmenstein_outcome>  (32) 
acceptable

$$$$
740
     RDKit          3D

 21 23  0  0  0  0  0  0  0  0999 V2000
  -33.7311   -4.6753   -1.8703 C   0  0  0  0  0  0  0  0  0  0  0  0
  -34.1254   -4.0737   -3.1384 N   0  0  0  0  0  0  0  0  0  0  0  0
  -33.0057   -4.0851   -4.1024 C   0  0  0  0  0  0  0  0  0  0  0  0
  -33.5489   -3.9412   -5.5345 C   0  0  2  0  0  0  0  0  0  0  0  0
  -34.2705   -5.1397   -5.8818 O   0  0  0  0  0  0  0  0  0  0  0  0
  -32.4597   -3.6992   -6.5980 C   0  0  0  0  0  0  0  0  0  0  0  0
  -31.6442   -4.9052   -6.8915 N   0  0  0  0  0  0  0  0  0  0  0  0
  -30.2916   -4.7808   -6.3201 C   0  0  0  0  0  0  0  0  0  0  0  0
  -29.3223   -4.0283   -7.2342 C   0  0  0  0  0  0  0  0  0  0  0  0
  -29.1403   -4.7142   -8.6170 C   0  0  0  0  0  0  0  0  0  0  0  0
  -28.8931   -3.6545   -9.7047 C   0  0  0  0  0  0  0  0  0  0  0  0
  -27.7597   -2.8288   -9.4734 C   0  0  0  0  0  0  0  0  0  0  0  0
  -27.3815   -1.8085  -10.3324 C   0  0  0  0  0  0  0  0  0  0  0  0
  -28.1165   -1.5379  -11.4706 C   0  0  0  0  0  0  0  0  0  0  0  0
  -29.2068   -2.3596  -11.7421 C   0  0  0  0  0  0  0  0  0  0  0  0
  -30.0230   -2.3274  -12.8494 N   0  0  0  0  0  0  0  0  0  0  0  0
  -30.9687   -3.3042  -12.7601 C   0  0  0  0  0  0  0  0  0  0  0  0
  -30.7569   -3.9731  -11.5747 C   0  0  0  0  0  0  0  0  0  0  0  0
  -29.6239   -3.4036  -10.9076 C   0  0  0  0  0  0  0  0  0  0  0  0
  -30.2656   -5.7232   -8.8436 C   0  0  0  0  0  0  0  0  0  0  0  0
  -31.5931   -5.1475   -8.3547 C   0  0  0  0  0  0  0  0  0  0  0  0
  1  2  1  0
  2  3  1  0
  3  4  1  0
  4  5  1  6
  4  6  1  0
  6  7  1  0
  7  8  1  0
  8  9  1  0
  9 10  1  0
 10 11  1  0
 11 12  2  0
 12 13  1  0
 13 14  2  0
 14 15  1  0
 15 16  1  0
 16 17  1  0
 17 18  2  0
 18 19  1  0
 10 20  1  0
 20 21  1  0
 21  7  1  0
 19 11  1  0
 19 15  2  0
M  END
>  <SLURM_JOB_NAME>  (33) 
BulkDock.place:A71EV2AZ:2AZ_iter1_frags_knitwork_impure_split1000_batch000

>  <SLURM_JOB_ID>  (33) 
282123

>  <distance_score>  (33) 
0.792956

>  <alias>  (33) 
None

>  <fragmenstein_error>  (33) 
None

>  <scratch_subdir>  (33) 
/opt/xchem-fragalysis-2/maxwin/BulkDock/SCRATCH/282123/C908-P6

>  <energy_score>  (33) 
-32.814075

>  <HIPPO Pose ID>  (33) 
740

>  <ref_mols>  (33) 
A0229a,A0759a

>  <inchikey>  (33) 
OYQBJTDDXNSVCT-AWEZNQCLSA-N

>  <name>  (33) 
OYQBJTDDXNSVCT-AWEZNQCLSA-N

>  <csv_name>  (33) 
2AZ_iter1_frags_knitwork_impure_split1000_batch000.csv

>  <fragmenstein_mode>  (33) 
expansion

>  <exports>  (33) 
['/opt/xchem-fragalysis-2/maxwin/BulkDock/OUTPUTS/2AZ_iter1_frags_knitwork_impure_split1000_batch000_282123.sdf', '/opt/xchem-fragalysis-2/maxwin/BulkDock/OUTPUTS/2AZ_iter1_frags_knitwork_impure_split1000_batch000_282123_fragalysis.sdf']

>  <HIPPO Compound ID>  (33) 
908

>  <original SMILES>  (33) 
CNC[C@H](O)CN1CCC(c2cccc3[nH]ccc23)CC1

>  <fragmenstein_runtime>  (33) 
1.785889

>  <ref_pdb>  (33) 
A0759a

>  <original ID>  (33) 
OYQBJTDDXNSVCT-AWEZNQCLSA-N

>  <tags>  (33) 
['Fragmenstein placed']

>  <fragmenstein_outcome>  (33) 
acceptable

$$$$
791
     RDKit          3D

 21 23  0  0  0  0  0  0  0  0999 V2000
  -35.4042   -3.4521   -4.1994 C   0  0  0  0  0  0  0  0  0  0  0  0
  -34.5841   -4.4416   -3.5235 N   0  0  0  0  0  0  0  0  0  0  0  0
  -33.1488   -4.3003   -3.8068 C   0  0  0  0  0  0  0  0  0  0  0  0
  -32.7171   -4.7939   -5.2074 C   0  0  2  0  0  0  0  0  0  0  0  0
  -33.1722   -6.1480   -5.3824 O   0  0  0  0  0  0  0  0  0  0  0  0
  -31.1695   -4.7035   -5.3568 C   0  0  0  0  0  0  0  0  0  0  0  0
  -30.5681   -5.4780   -6.4779 N   0  0  0  0  0  0  0  0  0  0  0  0
  -29.1168   -5.1277   -6.6020 C   0  0  0  0  0  0  0  0  0  0  0  0
  -28.4281   -5.6248   -7.9099 C   0  0  0  0  0  0  0  0  0  0  0  0
  -29.1719   -5.2024   -9.1230 N   0  0  0  0  0  0  0  0  0  0  0  0
  -28.9397   -3.9672   -9.7605 C   0  0  0  0  0  0  0  0  0  0  0  0
  -28.0224   -3.0386   -9.2084 C   0  0  0  0  0  0  0  0  0  0  0  0
  -27.6688   -1.8379   -9.8217 C   0  0  0  0  0  0  0  0  0  0  0  0
  -28.1996   -1.4764  -11.0458 C   0  0  0  0  0  0  0  0  0  0  0  0
  -29.1391   -2.3384  -11.6029 C   0  0  0  0  0  0  0  0  0  0  0  0
  -29.8245   -2.1821  -12.7900 N   0  0  0  0  0  0  0  0  0  0  0  0
  -30.6800   -3.2304  -12.9719 C   0  0  0  0  0  0  0  0  0  0  0  0
  -30.4720   -4.1131  -11.9358 C   0  0  0  0  0  0  0  0  0  0  0  0
  -29.5297   -3.5488  -11.0092 C   0  0  0  0  0  0  0  0  0  0  0  0
  -30.5616   -5.6689   -9.0315 C   0  0  0  0  0  0  0  0  0  0  0  0
  -31.2188   -5.1284   -7.7515 C   0  0  0  0  0  0  0  0  0  0  0  0
  1  2  1  0
  2  3  1  0
  3  4  1  0
  4  5  1  1
  4  6  1  0
  6  7  1  0
  7  8  1  0
  8  9  1  0
  9 10  1  0
 10 11  1  0
 11 12  2  0
 12 13  1  0
 13 14  2  0
 14 15  1  0
 15 16  1  0
 16 17  1  0
 17 18  2  0
 18 19  1  0
 10 20  1  0
 20 21  1  0
 21  7  1  0
 19 11  1  0
 19 15  2  0
M  END
>  <SLURM_JOB_NAME>  (34) 
BulkDock.place:A71EV2AZ:2AZ_iter1_frags_knitwork_impure_split1000_batch000

>  <SLURM_JOB_ID>  (34) 
282123

>  <distance_score>  (34) 
0.998691

>  <alias>  (34) 
None

>  <fragmenstein_error>  (34) 
None

>  <scratch_subdir>  (34) 
/opt/xchem-fragalysis-2/maxwin/BulkDock/SCRATCH/282123/C963-P1

>  <energy_score>  (34) 
-44.882531

>  <HIPPO Pose ID>  (34) 
791

>  <ref_mols>  (34) 
A0229a,A0759a

>  <inchikey>  (34) 
OYPCBBNKPFFPHD-ZDUSSCGKSA-N

>  <name>  (34) 
OYPCBBNKPFFPHD-ZDUSSCGKSA-N

>  <csv_name>  (34) 
2AZ_iter1_frags_knitwork_impure_split1000_batch000.csv

>  <fragmenstein_mode>  (34) 
expansion

>  <exports>  (34) 
['/opt/xchem-fragalysis-2/maxwin/BulkDock/OUTPUTS/2AZ_iter1_frags_knitwork_impure_split1000_batch000_282123.sdf', '/opt/xchem-fragalysis-2/maxwin/BulkDock/OUTPUTS/2AZ_iter1_frags_knitwork_impure_split1000_batch000_282123_fragalysis.sdf']

>  <HIPPO Compound ID>  (34) 
963

>  <original SMILES>  (34) 
CNC[C@H](O)CN1CCN(c2cccc3[nH]ccc23)CC1

>  <fragmenstein_runtime>  (34) 
1.352309

>  <ref_pdb>  (34) 
A0229a

>  <original ID>  (34) 
OYPCBBNKPFFPHD-ZDUSSCGKSA-N

>  <tags>  (34) 
['Fragmenstein placed']

>  <fragmenstein_outcome>  (34) 
acceptable

$$$$
801
     RDKit          3D

 22 24  0  0  0  0  0  0  0  0999 V2000
  -34.3843   -4.2615   -0.1692 C   0  0  0  0  0  0  0  0  0  0  0  0
  -33.9241   -4.5776   -1.5914 C   0  0  2  0  0  0  0  0  0  0  0  0
  -33.1314   -3.4059   -2.1762 C   0  0  0  0  0  0  0  0  0  0  0  0
  -32.9093   -3.4767   -3.6895 C   0  0  0  0  0  0  0  0  0  0  0  0
  -33.2183   -4.8522   -4.2815 C   0  0  2  0  0  0  0  0  0  0  0  0
  -32.9236   -5.0002   -5.8108 C   0  0  2  0  0  0  0  0  0  0  0  0
  -33.5764   -3.9212   -6.6756 C   0  0  0  0  0  0  0  0  0  0  0  0
  -33.5149   -6.2591   -6.2182 O   0  0  0  0  0  0  0  0  0  0  0  0
  -31.3969   -5.1420   -6.1479 C   0  0  0  0  0  0  0  0  0  0  0  0
  -30.4942   -3.9998   -5.9728 N   0  0  0  0  0  0  0  0  0  0  0  0
  -29.1219   -4.2887   -6.4734 C   0  0  0  0  0  0  0  0  0  0  0  0
  -28.9933   -3.8117   -7.8878 C   0  0  0  0  0  0  0  0  0  0  0  0
  -29.5231   -4.3655   -9.0372 C   0  0  0  0  0  0  0  0  0  0  0  0
  -29.3452   -3.4261  -10.0182 N   0  0  0  0  0  0  0  0  0  0  0  0
  -29.8608   -3.3885  -11.3089 C   0  0  0  0  0  0  0  0  0  0  0  0
  -29.6082   -2.3165  -12.0766 C   0  0  0  0  0  0  0  0  0  0  0  0
  -28.7463   -1.2692  -11.5594 C   0  0  0  0  0  0  0  0  0  0  0  0
  -28.2452   -1.3190  -10.3116 C   0  0  0  0  0  0  0  0  0  0  0  0
  -28.5782   -2.4086   -9.4612 C   0  0  0  0  0  0  0  0  0  0  0  0
  -28.3632   -2.6164   -8.1778 N   0  0  0  0  0  0  0  0  0  0  0  0
  -34.6749   -5.2486   -3.9224 C   0  0  0  0  0  0  0  0  0  0  0  0
  -35.1101   -4.8889   -2.4992 C   0  0  0  0  0  0  0  0  0  0  0  0
  2  1  1  1
  2  3  1  0
  3  4  1  0
  5  4  1  6
  5  6  1  0
  6  7  1  6
  6  8  1  0
  6  9  1  0
  9 10  1  0
 10 11  1  0
 11 12  1  0
 12 13  2  0
 13 14  1  0
 14 15  1  0
 15 16  2  0
 16 17  1  0
 17 18  2  0
 18 19  1  0
 19 20  2  0
  5 21  1  0
 21 22  1  0
 22  2  1  0
 20 12  1  0
 19 14  1  0
M  END
>  <SLURM_JOB_NAME>  (35) 
BulkDock.place:A71EV2AZ:2AZ_iter1_frags_knitwork_impure_split1000_batch000

>  <SLURM_JOB_ID>  (35) 
282123

>  <distance_score>  (35) 
0.867625

>  <alias>  (35) 
None

>  <fragmenstein_error>  (35) 
None

>  <scratch_subdir>  (35) 
/opt/xchem-fragalysis-2/maxwin/BulkDock/SCRATCH/282123/C973-P5

>  <energy_score>  (35) 
-44.64226

>  <HIPPO Pose ID>  (35) 
801

>  <ref_mols>  (35) 
A0503a,A0759a

>  <inchikey>  (35) 
OYFZSXUCDDDLSQ-RVKKMQEKSA-N

>  <name>  (35) 
OYFZSXUCDDDLSQ-RVKKMQEKSA-N

>  <csv_name>  (35) 
2AZ_iter1_frags_knitwork_impure_split1000_batch000.csv

>  <fragmenstein_mode>  (35) 
expansion

>  <exports>  (35) 
['/opt/xchem-fragalysis-2/maxwin/BulkDock/OUTPUTS/2AZ_iter1_frags_knitwork_impure_split1000_batch000_282123.sdf', '/opt/xchem-fragalysis-2/maxwin/BulkDock/OUTPUTS/2AZ_iter1_frags_knitwork_impure_split1000_batch000_282123_fragalysis.sdf']

>  <HIPPO Compound ID>  (35) 
973

>  <original SMILES>  (35) 
C[C@@](O)(CNCc1cn2ccccc2n1)[C@H]1CC[C@@H](C)CC1

>  <fragmenstein_runtime>  (35) 
17.302029

>  <ref_pdb>  (35) 
A0503a

>  <original ID>  (35) 
OYFZSXUCDDDLSQ-RVKKMQEKSA-N

>  <tags>  (35) 
['Fragmenstein placed']

>  <fragmenstein_outcome>  (35) 
acceptable

$$$$
802
     RDKit          3D

 22 24  0  0  0  0  0  0  0  0999 V2000
  -33.1888   -5.4248    0.2841 C   0  0  0  0  0  0  0  0  0  0  0  0
  -33.0515   -5.4820   -1.2358 C   0  0  2  0  0  0  0  0  0  0  0  0
  -31.7792   -4.7520   -1.7024 C   0  0  0  0  0  0  0  0  0  0  0  0
  -31.9161   -4.0955   -3.0857 C   0  0  0  0  0  0  0  0  0  0  0  0
  -32.7566   -4.9865   -4.0011 C   0  0  2  0  0  0  0  0  0  0  0  0
  -32.6772   -4.6611   -5.5164 C   0  0  2  0  0  0  0  0  0  0  0  0
  -33.1286   -3.2496   -5.8516 C   0  0  0  0  0  0  0  0  0  0  0  0
  -33.6089   -5.5476   -6.1772 O   0  0  0  0  0  0  0  0  0  0  0  0
  -31.2709   -4.9553   -6.1539 C   0  0  0  0  0  0  0  0  0  0  0  0
  -30.1522   -4.0567   -5.8426 N   0  0  0  0  0  0  0  0  0  0  0  0
  -28.8837   -4.4698   -6.4943 C   0  0  0  0  0  0  0  0  0  0  0  0
  -28.8546   -3.9844   -7.9091 C   0  0  0  0  0  0  0  0  0  0  0  0
  -29.4038   -4.5712   -9.0326 C   0  0  0  0  0  0  0  0  0  0  0  0
  -29.2848   -3.6440  -10.0329 N   0  0  0  0  0  0  0  0  0  0  0  0
  -29.7930   -3.6701  -11.3278 C   0  0  0  0  0  0  0  0  0  0  0  0
  -29.5569   -2.6273  -12.1397 C   0  0  0  0  0  0  0  0  0  0  0  0
  -28.7324   -1.5377  -11.6510 C   0  0  0  0  0  0  0  0  0  0  0  0
  -28.2545   -1.5167  -10.3940 C   0  0  0  0  0  0  0  0  0  0  0  0
  -28.5547   -2.5839   -9.5074 C   0  0  0  0  0  0  0  0  0  0  0  0
  -28.2925   -2.7642   -8.2288 N   0  0  0  0  0  0  0  0  0  0  0  0
  -34.2092   -5.0371   -3.4551 C   0  0  0  0  0  0  0  0  0  0  0  0
  -34.2979   -4.9272   -1.9271 C   0  0  0  0  0  0  0  0  0  0  0  0
  2  1  1  1
  2  3  1  0
  3  4  1  0
  5  4  1  1
  5  6  1  0
  6  7  1  1
  6  8  1  0
  6  9  1  0
  9 10  1  0
 10 11  1  0
 11 12  1  0
 12 13  2  0
 13 14  1  0
 14 15  1  0
 15 16  2  0
 16 17  1  0
 17 18  2  0
 18 19  1  0
 19 20  2  0
  5 21  1  0
 21 22  1  0
 22  2  1  0
 20 12  1  0
 19 14  1  0
M  END
>  <SLURM_JOB_NAME>  (36) 
BulkDock.place:A71EV2AZ:2AZ_iter1_frags_knitwork_impure_split1000_batch000

>  <SLURM_JOB_ID>  (36) 
282123

>  <distance_score>  (36) 
0.908356

>  <alias>  (36) 
None

>  <fragmenstein_error>  (36) 
None

>  <scratch_subdir>  (36) 
/opt/xchem-fragalysis-2/maxwin/BulkDock/SCRATCH/282123/C973-P6

>  <energy_score>  (36) 
-46.640503

>  <HIPPO Pose ID>  (36) 
802

>  <ref_mols>  (36) 
A0503a,A0759a

>  <inchikey>  (36) 
OYFZSXUCDDDLSQ-RVKKMQEKSA-N

>  <name>  (36) 
OYFZSXUCDDDLSQ-RVKKMQEKSA-N

>  <csv_name>  (36) 
2AZ_iter1_frags_knitwork_impure_split1000_batch000.csv

>  <fragmenstein_mode>  (36) 
expansion

>  <exports>  (36) 
['/opt/xchem-fragalysis-2/maxwin/BulkDock/OUTPUTS/2AZ_iter1_frags_knitwork_impure_split1000_batch000_282123.sdf', '/opt/xchem-fragalysis-2/maxwin/BulkDock/OUTPUTS/2AZ_iter1_frags_knitwork_impure_split1000_batch000_282123_fragalysis.sdf']

>  <HIPPO Compound ID>  (36) 
973

>  <original SMILES>  (36) 
C[C@@](O)(CNCc1cn2ccccc2n1)[C@H]1CC[C@@H](C)CC1

>  <fragmenstein_runtime>  (36) 
17.700044

>  <ref_pdb>  (36) 
A0759a

>  <original ID>  (36) 
OYFZSXUCDDDLSQ-RVKKMQEKSA-N

>  <tags>  (36) 
['Fragmenstein placed']

>  <fragmenstein_outcome>  (36) 
acceptable

$$$$
813
     RDKit          3D

 22 24  0  0  0  0  0  0  0  0999 V2000
  -27.6401   -3.4421   -7.5393 C   0  0  0  0  0  0  0  0  0  0  0  0
  -27.4115   -2.4833   -8.5596 O   0  0  0  0  0  0  0  0  0  0  0  0
  -28.1937   -2.5199   -9.6844 C   0  0  0  0  0  0  0  0  0  0  0  0
  -28.0791   -1.3580  -10.4531 C   0  0  0  0  0  0  0  0  0  0  0  0
  -28.7986   -1.2048  -11.6316 C   0  0  0  0  0  0  0  0  0  0  0  0
  -29.6471   -2.2109  -12.0603 C   0  0  0  0  0  0  0  0  0  0  0  0
  -29.7449   -3.3901  -11.3278 C   0  0  0  0  0  0  0  0  0  0  0  0
  -29.0286   -3.5566  -10.1348 C   0  0  0  0  0  0  0  0  0  0  0  0
  -29.0499   -4.7157   -9.4169 O   0  0  0  0  0  0  0  0  0  0  0  0
  -30.1365   -5.6329   -9.5897 C   0  0  1  0  0  0  0  0  0  0  0  0
  -29.6546   -6.8142  -10.4237 C   0  0  0  0  0  0  0  0  0  0  0  0
  -30.5448   -6.0996   -8.1841 C   0  0  0  0  0  0  0  0  0  0  0  0
  -30.9927   -4.9858   -7.3438 N   0  0  0  0  0  0  0  0  0  0  0  0
  -32.4336   -4.8700   -7.2195 C   0  0  0  0  0  0  0  0  0  0  0  0
  -32.7495   -4.4848   -5.8244 C   0  0  0  0  0  0  0  0  0  0  0  0
  -32.1443   -4.8067   -4.6111 C   0  0  0  0  0  0  0  0  0  0  0  0
  -32.7831   -4.2266   -3.5334 N   0  0  0  0  0  0  0  0  0  0  0  0
  -33.7558   -3.5732   -4.0968 C   0  0  0  0  0  0  0  0  0  0  0  0
  -35.0037   -2.5254   -3.5117 S   0  0  0  0  0  0  0  0  0  0  0  0
  -35.5990   -2.3675   -5.1730 C   0  0  0  0  0  0  0  0  0  0  0  0
  -34.8612   -3.0565   -6.0613 C   0  0  0  0  0  0  0  0  0  0  0  0
  -33.8167   -3.7146   -5.4520 N   0  0  0  0  0  0  0  0  0  0  0  0
  1  2  1  0
  2  3  1  0
  3  4  2  0
  4  5  1  0
  5  6  2  0
  6  7  1  0
  7  8  2  0
  8  9  1  0
  9 10  1  0
 10 11  1  6
 10 12  1  0
 12 13  1  0
 13 14  1  0
 14 15  1  0
 15 16  2  0
 16 17  1  0
 17 18  2  0
 18 19  1  0
 19 20  1  0
 20 21  2  0
 21 22  1  0
  8  3  1  0
 22 15  1  0
 22 18  1  0
M  END
>  <SLURM_JOB_NAME>  (37) 
BulkDock.place:A71EV2AZ:2AZ_iter1_frags_knitwork_impure_split1000_batch000

>  <SLURM_JOB_ID>  (37) 
282123

>  <distance_score>  (37) 
0.99452

>  <alias>  (37) 
None

>  <fragmenstein_error>  (37) 
None

>  <scratch_subdir>  (37) 
/opt/xchem-fragalysis-2/maxwin/BulkDock/SCRATCH/282123/C980-P5

>  <energy_score>  (37) 
-39.26184

>  <HIPPO Pose ID>  (37) 
813

>  <ref_mols>  (37) 
A0503a,A0759a

>  <inchikey>  (37) 
NWNDXWKRJDTNKY-LBPRGKRZSA-N

>  <name>  (37) 
NWNDXWKRJDTNKY-LBPRGKRZSA-N

>  <csv_name>  (37) 
2AZ_iter1_frags_knitwork_impure_split1000_batch000.csv

>  <fragmenstein_mode>  (37) 
expansion

>  <exports>  (37) 
['/opt/xchem-fragalysis-2/maxwin/BulkDock/OUTPUTS/2AZ_iter1_frags_knitwork_impure_split1000_batch000_282123.sdf', '/opt/xchem-fragalysis-2/maxwin/BulkDock/OUTPUTS/2AZ_iter1_frags_knitwork_impure_split1000_batch000_282123_fragalysis.sdf']

>  <HIPPO Compound ID>  (37) 
980

>  <original SMILES>  (37) 
COc1ccccc1O[C@@H](C)CNCc1cnc2sccn12

>  <fragmenstein_runtime>  (37) 
7.280961

>  <ref_pdb>  (37) 
A0503a

>  <original ID>  (37) 
NWNDXWKRJDTNKY-LBPRGKRZSA-N

>  <tags>  (37) 
['Fragmenstein placed']

>  <fragmenstein_outcome>  (37) 
acceptable

$$$$
