ver_1.2
     RDKit          3D

 19 20  0  0  0  0  0  0  0  0999 V2000
   -4.6003   -1.7234    1.6547 C   0  0  0  0  0  0  0  0  0  0  0  0
   -3.7440   -0.9791    0.6407 C   0  0  0  0  0  0  0  0  0  0  0  0
   -4.3403    0.4280    0.5742 C   0  0  0  0  0  0  0  0  0  0  0  0
   -3.8656   -1.6067   -0.7058 C   0  0  0  0  0  0  0  0  0  0  0  0
   -2.3537   -0.8550    1.1707 C   0  0  0  0  0  0  0  0  0  0  0  0
   -1.3996   -0.1452    0.2801 C   0  0  0  0  0  0  0  0  0  0  0  0
   -1.7063    1.2468   -0.0814 C   0  0  0  0  0  0  0  0  0  0  0  0
   -2.4620    1.4637   -1.2018 O   0  0  0  0  0  0  0  0  0  0  0  0
   -0.6848   -0.9479   -0.6351 N   0  0  0  0  0  0  0  0  0  0  0  0
    0.2366   -0.2852   -1.5013 C   0  0  0  0  0  0  0  0  0  0  0  0
    1.3203    0.4464   -0.8316 C   0  0  0  0  0  0  0  0  0  0  0  0
    1.2215    1.8348   -0.7750 C   0  0  0  0  0  0  0  0  0  0  0  0
    2.2419    2.5079   -0.1460 C   0  0  0  0  0  0  0  0  0  0  0  0
    3.3324    1.8886    0.4177 C   0  0  0  0  0  0  0  0  0  0  0  0
    3.4070    0.5019    0.3477 C   0  0  0  0  0  0  0  0  0  0  0  0
    4.3314   -0.3745    0.7970 N   0  0  0  0  0  0  0  0  0  0  0  0
    3.9329   -1.6330    0.4709 C   0  0  0  0  0  0  0  0  0  0  0  0
    2.7336   -1.5460   -0.1971 C   0  0  0  0  0  0  0  0  0  0  0  0
    2.3988   -0.2222   -0.2785 C   0  0  0  0  0  0  0  0  0  0  0  0
  1  2  1  0
  2  3  1  0
  2  4  1  0
  2  5  1  0
  5  6  1  0
  6  7  1  0
  7  8  1  0
  6  9  1  0
  9 10  1  0
 10 11  1  0
 11 12  2  0
 12 13  1  0
 13 14  2  0
 14 15  1  0
 15 16  1  0
 16 17  1  0
 17 18  2  0
 18 19  1  0
 19 11  1  0
 19 15  2  0
M  END
>  <ref_url>  (1) 
https://github.com/mwinokan/BulkDock

>  <submitter_name>  (1) 
Max Winokan

>  <submitter_email>  (1) 
max.winokan@diamond.ac.uk

>  <submitter_institution>  (1) 
DLS

>  <generation_date>  (1) 
2025-03-04

>  <method>  (1) 
iter1_knit_impure

>  <SLURM_JOB_ID>  (1) 
SLURM_JOB_ID

>  <SLURM_JOB_NAME>  (1) 
SLURM_JOB_NAME

>  <csv_name>  (1) 
csv_name

>  <scratch_subdir>  (1) 
scratch_subdir

>  <fragmenstein_runtime>  (1) 
fragmenstein_runtime

>  <fragmenstein_outcome>  (1) 
fragmenstein_outcome

>  <fragmenstein_mode>  (1) 
fragmenstein_mode

>  <fragmenstein_error>  (1) 
fragmenstein_error

>  <exports>  (1) 
exports

>  <score_inspiration>  (1) 
score_inspiration

>  <HIPPO Pose ID>  (1) 
HIPPO Pose ID

>  <HIPPO Compound ID>  (1) 
HIPPO Compound ID

>  <smiles>  (1) 
smiles

>  <ref_pdb>  (1) 
protein reference

>  <ref_mols>  (1) 
fragment inspirations

>  <original ID>  (1) 
original ID

>  <compound inchikey>  (1) 
compound inchikey

$$$$
127
     RDKit          3D

 19 20  0  0  0  0  0  0  0  0999 V2000
   24.8262    1.8395   23.4479 C   0  0  0  0  0  0  0  0  0  0  0  0
   25.6987    0.9720   22.5385 C   0  0  0  0  0  0  0  0  0  0  0  0
   25.6758   -0.4723   23.0774 C   0  0  0  0  0  0  0  0  0  0  0  0
   25.1058    0.9584   21.1181 C   0  0  0  0  0  0  0  0  0  0  0  0
   27.1659    1.4798   22.4215 C   0  0  0  0  0  0  0  0  0  0  0  0
   27.9463    1.7754   23.7291 C   0  0  1  0  0  0  0  0  0  0  0  0
   29.4717    1.6100   23.5150 C   0  0  0  0  0  0  0  0  0  0  0  0
   29.8117    0.2505   23.2581 O   0  0  0  0  0  0  0  0  0  0  0  0
   27.5772    3.0660   24.3384 N   0  0  0  0  0  0  0  0  0  0  0  0
   28.1102    4.2587   23.6646 C   0  0  0  0  0  0  0  0  0  0  0  0
   27.6309    5.5191   24.3574 C   0  0  0  0  0  0  0  0  0  0  0  0
   28.2822    5.9486   25.5365 C   0  0  0  0  0  0  0  0  0  0  0  0
   27.8350    7.0526   26.2621 C   0  0  0  0  0  0  0  0  0  0  0  0
   26.7180    7.7783   25.8491 C   0  0  0  0  0  0  0  0  0  0  0  0
   26.0821    7.3685   24.6737 C   0  0  0  0  0  0  0  0  0  0  0  0
   24.9553    7.8773   24.0621 N   0  0  0  0  0  0  0  0  0  0  0  0
   24.6856    7.1737   22.9195 C   0  0  0  0  0  0  0  0  0  0  0  0
   25.6262    6.1760   22.8116 C   0  0  0  0  0  0  0  0  0  0  0  0
   26.5125    6.2741   23.9204 C   0  0  0  0  0  0  0  0  0  0  0  0
  1  2  1  0
  2  3  1  0
  2  4  1  0
  2  5  1  0
  6  5  1  6
  6  7  1  0
  7  8  1  0
  6  9  1  0
  9 10  1  0
 10 11  1  0
 11 12  2  0
 12 13  1  0
 13 14  2  0
 14 15  1  0
 15 16  1  0
 16 17  1  0
 17 18  2  0
 18 19  1  0
 19 11  1  0
 19 15  2  0
M  END
>  <fragmenstein_mode>  (1) 
expansion

>  <csv_name>  (1) 
A71EV2AZ_iter1_frags_knitwork_impure_split1000_batch000.csv

>  <HIPPO Pose ID>  (1) 
127

>  <energy_score>  (1) 
-35.950897

>  <fragmenstein_outcome>  (1) 
acceptable

>  <fragmenstein_error>  (1) 
None

>  <original SMILES>  (1) 
CC(C)(C)C[C@@H](CO)NCc1cccc2[nH]ccc12

>  <original ID>  (1) 
WPONJNSGUOJHFG-ZDUSSCGKSA-N

>  <inchikey>  (1) 
WPONJNSGUOJHFG-ZDUSSCGKSA-N

>  <tags>  (1) 
Fragmenstein placed

>  <SLURM_JOB_ID>  (1) 
303813

>  <score_inspiration>  (1) 
0.094305

>  <scratch_subdir>  (1) 
/opt/xchem-fragalysis-2/maxwin/BulkDock/SCRATCH/303813/C490-P1

>  <distance_score>  (1) 
0.935066

>  <ref_pdb>  (1) 
A0229a

>  <HIPPO Compound ID>  (1) 
490

>  <alias>  (1) 
None

>  <ref_mols>  (1) 
A0229a,A0759a

>  <name>  (1) 
WPONJNSGUOJHFG-ZDUSSCGKSA-N

>  <fragmenstein_runtime>  (1) 
7.053342

$$$$
130
     RDKit          3D

 19 20  0  0  0  0  0  0  0  0999 V2000
   24.2355    1.7780   24.1273 C   0  0  0  0  0  0  0  0  0  0  0  0
   24.9464    1.4701   22.8038 C   0  0  0  0  0  0  0  0  0  0  0  0
   24.8740   -0.0465   22.5462 C   0  0  0  0  0  0  0  0  0  0  0  0
   24.1704    2.1941   21.6882 C   0  0  0  0  0  0  0  0  0  0  0  0
   26.4307    1.9440   22.7537 C   0  0  0  0  0  0  0  0  0  0  0  0
   27.3411    1.5986   23.9631 C   0  0  1  0  0  0  0  0  0  0  0  0
   28.8067    1.3868   23.5126 C   0  0  0  0  0  0  0  0  0  0  0  0
   28.9205    0.2302   22.6861 O   0  0  0  0  0  0  0  0  0  0  0  0
   27.1993    2.5536   25.0788 N   0  0  0  0  0  0  0  0  0  0  0  0
   27.9125    3.8263   24.9226 C   0  0  0  0  0  0  0  0  0  0  0  0
   27.6406    4.7369   26.1065 C   0  0  0  0  0  0  0  0  0  0  0  0
   28.0142    4.2988   27.3986 C   0  0  0  0  0  0  0  0  0  0  0  0
   27.8302    5.0912   28.5291 C   0  0  0  0  0  0  0  0  0  0  0  0
   27.2688    6.3621   28.4248 C   0  0  0  0  0  0  0  0  0  0  0  0
   26.8918    6.8001   27.1512 C   0  0  0  0  0  0  0  0  0  0  0  0
   26.3296    7.9987   26.7715 N   0  0  0  0  0  0  0  0  0  0  0  0
   26.1459    8.0234   25.4164 C   0  0  0  0  0  0  0  0  0  0  0  0
   26.5802    6.8187   24.9109 C   0  0  0  0  0  0  0  0  0  0  0  0
   27.0596    6.0276   25.9981 C   0  0  0  0  0  0  0  0  0  0  0  0
  1  2  1  0
  2  3  1  0
  2  4  1  0
  2  5  1  0
  6  5  1  6
  6  7  1  0
  7  8  1  0
  6  9  1  0
  9 10  1  0
 10 11  1  0
 11 12  2  0
 12 13  1  0
 13 14  2  0
 14 15  1  0
 15 16  1  0
 16 17  1  0
 17 18  2  0
 18 19  1  0
 19 11  1  0
 19 15  2  0
M  END
>  <fragmenstein_mode>  (2) 
expansion

>  <csv_name>  (2) 
A71EV2AZ_iter1_frags_knitwork_impure_split1000_batch000.csv

>  <HIPPO Pose ID>  (2) 
130

>  <energy_score>  (2) 
-37.273274

>  <fragmenstein_outcome>  (2) 
acceptable

>  <fragmenstein_error>  (2) 
None

>  <original SMILES>  (2) 
CC(C)(C)C[C@@H](CO)NCc1cccc2[nH]ccc12

>  <original ID>  (2) 
WPONJNSGUOJHFG-ZDUSSCGKSA-N

>  <inchikey>  (2) 
WPONJNSGUOJHFG-ZDUSSCGKSA-N

>  <tags>  (2) 
Fragmenstein placed

>  <SLURM_JOB_ID>  (2) 
303813

>  <score_inspiration>  (2) 
0.117908

>  <scratch_subdir>  (2) 
/opt/xchem-fragalysis-2/maxwin/BulkDock/SCRATCH/303813/C490-P6

>  <distance_score>  (2) 
0.464763

>  <ref_pdb>  (2) 
A0759a

>  <HIPPO Compound ID>  (2) 
490

>  <alias>  (2) 
None

>  <ref_mols>  (2) 
A0229a,A0759a

>  <name>  (2) 
WPONJNSGUOJHFG-ZDUSSCGKSA-N

>  <fragmenstein_runtime>  (2) 
7.119775

$$$$
165
     RDKit          3D

 22 25  0  0  0  0  0  0  0  0999 V2000
   19.3785    0.2007   27.4779 O   0  0  0  0  0  0  0  0  0  0  0  0
   19.6257    0.2167   26.3372 C   0  0  0  0  0  0  0  0  0  0  0  0
   20.7344   -0.6075   25.7170 C   0  0  0  0  0  0  0  0  0  0  0  0
   21.9692    0.2909   25.6213 C   0  0  0  0  0  0  0  0  0  0  0  0
   22.5730    0.4862   26.9643 C   0  0  0  0  0  0  0  0  0  0  0  0
   23.5210   -0.2208   27.5404 N   0  0  0  0  0  0  0  0  0  0  0  0
   23.5392    0.3103   28.8066 C   0  0  0  0  0  0  0  0  0  0  0  0
   24.4923   -0.2456   29.9057 C   0  0  0  0  0  0  0  0  0  0  0  0
   24.1121   -0.1462   31.3610 C   0  0  0  0  0  0  0  0  0  0  0  0
   25.2234    0.7057   30.8172 C   0  0  0  0  0  0  0  0  0  0  0  0
   22.6920    1.3265   29.0058 N   0  0  0  0  0  0  0  0  0  0  0  0
   22.0339    1.4358   27.7808 O   0  0  0  0  0  0  0  0  0  0  0  0
   19.0372    1.0854   25.1920 N   0  0  0  0  0  0  0  0  0  0  0  0
   18.1316    2.1324   25.2322 C   0  0  0  0  0  0  0  0  0  0  0  0
   17.3916    2.3643   24.0657 C   0  0  0  0  0  0  0  0  0  0  0  0
   16.4753    3.4023   24.0095 C   0  0  0  0  0  0  0  0  0  0  0  0
   16.3089    4.2684   25.0819 C   0  0  0  0  0  0  0  0  0  0  0  0
   17.1067    4.0777   26.2080 C   0  0  0  0  0  0  0  0  0  0  0  0
   17.1690    4.8305   27.3565 N   0  0  0  0  0  0  0  0  0  0  0  0
   18.1560    4.3528   28.1717 C   0  0  0  0  0  0  0  0  0  0  0  0
   18.6857    3.2315   27.5698 C   0  0  0  0  0  0  0  0  0  0  0  0
   18.0180    3.0279   26.3237 C   0  0  0  0  0  0  0  0  0  0  0  0
  1  2  2  0
  2  3  1  0
  3  4  1  0
  4  5  1  0
  5  6  2  0
  6  7  1  0
  7  8  1  0
  8  9  1  0
  9 10  1  0
  7 11  2  0
 11 12  1  0
  2 13  1  0
 13 14  1  0
 14 15  2  0
 15 16  1  0
 16 17  2  0
 17 18  1  0
 18 19  1  0
 19 20  1  0
 20 21  2  0
 21 22  1  0
 12  5  1  0
 22 14  1  0
 10  8  1  0
 22 18  2  0
M  END
>  <fragmenstein_mode>  (3) 
expansion

>  <csv_name>  (3) 
A71EV2AZ_iter1_frags_knitwork_impure_split1000_batch000.csv

>  <HIPPO Pose ID>  (3) 
165

>  <energy_score>  (3) 
-19.873378

>  <fragmenstein_outcome>  (3) 
acceptable

>  <fragmenstein_error>  (3) 
None

>  <original SMILES>  (3) 
O=C(CCc1nc(C2CC2)no1)Nc1cccc2[nH]ccc12

>  <original ID>  (3) 
CAPSERZENVTUQF-UHFFFAOYSA-N

>  <inchikey>  (3) 
CAPSERZENVTUQF-UHFFFAOYSA-N

>  <tags>  (3) 
Fragmenstein placed

>  <SLURM_JOB_ID>  (3) 
303813

>  <score_inspiration>  (3) 
0.474861

>  <scratch_subdir>  (3) 
/opt/xchem-fragalysis-2/maxwin/BulkDock/SCRATCH/303813/C527-P1

>  <distance_score>  (3) 
0.984543

>  <ref_pdb>  (3) 
A0229a

>  <HIPPO Compound ID>  (3) 
527

>  <alias>  (3) 
None

>  <ref_mols>  (3) 
A0229a,A0503a

>  <name>  (3) 
CAPSERZENVTUQF-UHFFFAOYSA-N

>  <fragmenstein_runtime>  (3) 
1.902281

$$$$
166
     RDKit          3D

 22 25  0  0  0  0  0  0  0  0999 V2000
   20.4265    1.0238   27.7193 O   0  0  0  0  0  0  0  0  0  0  0  0
   20.4597    0.7710   26.5794 C   0  0  0  0  0  0  0  0  0  0  0  0
   21.5413   -0.0832   25.9492 C   0  0  0  0  0  0  0  0  0  0  0  0
   22.4804    0.8028   25.1328 C   0  0  0  0  0  0  0  0  0  0  0  0
   23.1382    1.8342   25.9652 C   0  0  0  0  0  0  0  0  0  0  0  0
   22.7990    3.0822   26.1706 N   0  0  0  0  0  0  0  0  0  0  0  0
   23.7991    3.5114   27.0052 C   0  0  0  0  0  0  0  0  0  0  0  0
   23.8551    4.9653   27.5464 C   0  0  0  0  0  0  0  0  0  0  0  0
   24.2149    6.0776   26.5942 C   0  0  0  0  0  0  0  0  0  0  0  0
   25.1774    5.6796   27.6734 C   0  0  0  0  0  0  0  0  0  0  0  0
   24.7069    2.5807   27.3285 N   0  0  0  0  0  0  0  0  0  0  0  0
   24.2693    1.4566   26.6277 O   0  0  0  0  0  0  0  0  0  0  0  0
   19.5597    1.2659   25.4099 N   0  0  0  0  0  0  0  0  0  0  0  0
   18.5366    2.2093   25.3941 C   0  0  0  0  0  0  0  0  0  0  0  0
   17.7600    2.2308   24.2192 C   0  0  0  0  0  0  0  0  0  0  0  0
   16.7749    3.1876   24.0200 C   0  0  0  0  0  0  0  0  0  0  0  0
   16.5438    4.1714   24.9695 C   0  0  0  0  0  0  0  0  0  0  0  0
   17.3282    4.1560   26.1228 C   0  0  0  0  0  0  0  0  0  0  0  0
   17.3017    5.0354   27.1773 N   0  0  0  0  0  0  0  0  0  0  0  0
   18.2672    4.7190   28.0846 C   0  0  0  0  0  0  0  0  0  0  0  0
   18.9010    3.5864   27.6246 C   0  0  0  0  0  0  0  0  0  0  0  0
   18.3143    3.2002   26.3801 C   0  0  0  0  0  0  0  0  0  0  0  0
  1  2  2  0
  2  3  1  0
  3  4  1  0
  4  5  1  0
  5  6  2  0
  6  7  1  0
  7  8  1  0
  8  9  1  0
  9 10  1  0
  7 11  2  0
 11 12  1  0
  2 13  1  0
 13 14  1  0
 14 15  2  0
 15 16  1  0
 16 17  2  0
 17 18  1  0
 18 19  1  0
 19 20  1  0
 20 21  2  0
 21 22  1  0
 12  5  1  0
 22 14  1  0
 10  8  1  0
 22 18  2  0
M  END
>  <fragmenstein_mode>  (4) 
expansion

>  <csv_name>  (4) 
A71EV2AZ_iter1_frags_knitwork_impure_split1000_batch000.csv

>  <HIPPO Pose ID>  (4) 
166

>  <energy_score>  (4) 
-22.695103

>  <fragmenstein_outcome>  (4) 
acceptable

>  <fragmenstein_error>  (4) 
None

>  <original SMILES>  (4) 
O=C(CCc1nc(C2CC2)no1)Nc1cccc2[nH]ccc12

>  <original ID>  (4) 
CAPSERZENVTUQF-UHFFFAOYSA-N

>  <inchikey>  (4) 
CAPSERZENVTUQF-UHFFFAOYSA-N

>  <tags>  (4) 
Fragmenstein placed

>  <SLURM_JOB_ID>  (4) 
303813

>  <score_inspiration>  (4) 
0.501252

>  <scratch_subdir>  (4) 
/opt/xchem-fragalysis-2/maxwin/BulkDock/SCRATCH/303813/C527-P5

>  <distance_score>  (4) 
0.755613

>  <ref_pdb>  (4) 
A0503a

>  <HIPPO Compound ID>  (4) 
527

>  <alias>  (4) 
None

>  <ref_mols>  (4) 
A0229a,A0503a

>  <name>  (4) 
CAPSERZENVTUQF-UHFFFAOYSA-N

>  <fragmenstein_runtime>  (4) 
1.275322

$$$$
246
     RDKit          3D

 26 29  0  0  0  0  0  0  0  0999 V2000
   20.4326    1.2740   28.0558 O   0  0  0  0  0  0  0  0  0  0  0  0
   20.3801    0.8074   26.9864 C   0  0  0  0  0  0  0  0  0  0  0  0
   21.3920   -0.2176   26.5001 C   0  0  0  0  0  0  0  0  0  0  0  0
   22.4046    0.3282   25.4488 C   0  0  0  0  0  0  0  0  0  0  0  0
   23.1002    1.6647   25.7263 C   0  0  0  0  0  0  0  0  0  0  0  0
   23.2310    2.1785   27.0281 C   0  0  0  0  0  0  0  0  0  0  0  0
   23.9245    3.3659   27.2812 C   0  0  0  0  0  0  0  0  0  0  0  0
   24.5429    4.0460   26.2413 C   0  0  0  0  0  0  0  0  0  0  0  0
   24.4881    3.5242   24.9553 C   0  0  0  0  0  0  0  0  0  0  0  0
   23.7870    2.3423   24.7033 C   0  0  0  0  0  0  0  0  0  0  0  0
   21.8727    0.0878   24.0268 C   0  0  0  0  0  0  0  0  0  0  0  0
   22.0379   -1.1844   23.4476 C   0  0  0  0  0  0  0  0  0  0  0  0
   21.4908   -1.4858   22.1987 C   0  0  0  0  0  0  0  0  0  0  0  0
   20.7559   -0.5260   21.5107 C   0  0  0  0  0  0  0  0  0  0  0  0
   20.5811    0.7373   22.0662 C   0  0  0  0  0  0  0  0  0  0  0  0
   21.1520    1.0475   23.3045 C   0  0  0  0  0  0  0  0  0  0  0  0
   19.4366    1.1233   25.7974 N   0  0  0  0  0  0  0  0  0  0  0  0
   18.4616    2.1082   25.6528 C   0  0  0  0  0  0  0  0  0  0  0  0
   17.7312    2.0483   24.4458 C   0  0  0  0  0  0  0  0  0  0  0  0
   16.8112    3.0275   24.0961 C   0  0  0  0  0  0  0  0  0  0  0  0
   16.5786    4.1012   24.9412 C   0  0  0  0  0  0  0  0  0  0  0  0
   17.3063    4.1596   26.1313 C   0  0  0  0  0  0  0  0  0  0  0  0
   17.2435    5.1148   27.1149 N   0  0  0  0  0  0  0  0  0  0  0  0
   18.1704    4.8703   28.0806 C   0  0  0  0  0  0  0  0  0  0  0  0
   18.7969    3.6924   27.7461 C   0  0  0  0  0  0  0  0  0  0  0  0
   18.2501    3.2050   26.5195 C   0  0  0  0  0  0  0  0  0  0  0  0
  1  2  2  0
  2  3  1  0
  3  4  1  0
  4  5  1  0
  5  6  2  0
  6  7  1  0
  7  8  2  0
  8  9  1  0
  9 10  2  0
  4 11  1  0
 11 12  2  0
 12 13  1  0
 13 14  2  0
 14 15  1  0
 15 16  2  0
  2 17  1  0
 17 18  1  0
 18 19  2  0
 19 20  1  0
 20 21  2  0
 21 22  1  0
 22 23  1  0
 23 24  1  0
 24 25  2  0
 25 26  1  0
 10  5  1  0
 16 11  1  0
 26 18  1  0
 26 22  2  0
M  END
>  <fragmenstein_mode>  (5) 
expansion

>  <csv_name>  (5) 
A71EV2AZ_iter1_frags_knitwork_impure_split1000_batch000.csv

>  <HIPPO Pose ID>  (5) 
246

>  <energy_score>  (5) 
-1.410917

>  <fragmenstein_outcome>  (5) 
acceptable

>  <fragmenstein_error>  (5) 
None

>  <original SMILES>  (5) 
O=C(CC(c1ccccc1)c1ccccc1)Nc1cccc2[nH]ccc12

>  <original ID>  (5) 
PMMASMGHJOEHPC-UHFFFAOYSA-N

>  <inchikey>  (5) 
PMMASMGHJOEHPC-UHFFFAOYSA-N

>  <tags>  (5) 
Fragmenstein placed

>  <SLURM_JOB_ID>  (5) 
303813

>  <score_inspiration>  (5) 
0.445922

>  <scratch_subdir>  (5) 
/opt/xchem-fragalysis-2/maxwin/BulkDock/SCRATCH/303813/C554-P5

>  <distance_score>  (5) 
0.910686

>  <ref_pdb>  (5) 
A0503a

>  <HIPPO Compound ID>  (5) 
554

>  <alias>  (5) 
None

>  <ref_mols>  (5) 
A0229a,A0503a

>  <name>  (5) 
PMMASMGHJOEHPC-UHFFFAOYSA-N

>  <fragmenstein_runtime>  (5) 
2.777758

$$$$
262
     RDKit          3D

 21 23  0  0  0  0  0  0  0  0999 V2000
   20.3487    0.9978   27.8228 O   0  0  0  0  0  0  0  0  0  0  0  0
   20.4460    0.7571   26.6836 C   0  0  0  0  0  0  0  0  0  0  0  0
   21.5663   -0.0867   26.1077 C   0  0  0  0  0  0  0  0  0  0  0  0
   22.5508    0.7920   25.3263 C   0  0  0  0  0  0  0  0  0  0  0  0
   23.2165    1.9276   26.0706 C   0  0  0  0  0  0  0  0  0  0  0  0
   23.7058    3.0194   25.3372 C   0  0  0  0  0  0  0  0  0  0  0  0
   24.3552    4.0845   25.9690 C   0  0  0  0  0  0  0  0  0  0  0  0
   24.5505    4.0624   27.3453 C   0  0  0  0  0  0  0  0  0  0  0  0
   24.0998    2.9715   28.0743 C   0  0  0  0  0  0  0  0  0  0  0  0
   24.3025    2.9366   29.3985 F   0  0  0  0  0  0  0  0  0  0  0  0
   23.4464    1.9082   27.4533 C   0  0  0  0  0  0  0  0  0  0  0  0
   19.6097    1.2604   25.4717 N   0  0  0  0  0  0  0  0  0  0  0  0
   18.5849    2.1993   25.4091 C   0  0  0  0  0  0  0  0  0  0  0  0
   17.8414    2.2072   24.2139 C   0  0  0  0  0  0  0  0  0  0  0  0
   16.8504    3.1520   23.9859 C   0  0  0  0  0  0  0  0  0  0  0  0
   16.5821    4.1376   24.9248 C   0  0  0  0  0  0  0  0  0  0  0  0
   17.3406    4.1396   26.0957 C   0  0  0  0  0  0  0  0  0  0  0  0
   17.2826    5.0253   27.1438 N   0  0  0  0  0  0  0  0  0  0  0  0
   18.2365    4.7281   28.0703 C   0  0  0  0  0  0  0  0  0  0  0  0
   18.8889    3.5970   27.6338 C   0  0  0  0  0  0  0  0  0  0  0  0
   18.3301    3.1958   26.3814 C   0  0  0  0  0  0  0  0  0  0  0  0
  1  2  2  0
  2  3  1  0
  3  4  1  0
  4  5  1  0
  5  6  2  0
  6  7  1  0
  7  8  2  0
  8  9  1  0
  9 10  1  0
  9 11  2  0
  2 12  1  0
 12 13  1  0
 13 14  2  0
 14 15  1  0
 15 16  2  0
 16 17  1  0
 17 18  1  0
 18 19  1  0
 19 20  2  0
 20 21  1  0
 11  5  1  0
 21 13  1  0
 21 17  2  0
M  END
>  <fragmenstein_mode>  (6) 
expansion

>  <csv_name>  (6) 
A71EV2AZ_iter1_frags_knitwork_impure_split1000_batch000.csv

>  <HIPPO Pose ID>  (6) 
262

>  <energy_score>  (6) 
-14.268657

>  <fragmenstein_outcome>  (6) 
acceptable

>  <fragmenstein_error>  (6) 
None

>  <original SMILES>  (6) 
O=C(CCc1cccc(F)c1)Nc1cccc2[nH]ccc12

>  <original ID>  (6) 
KKJOIKXBQAKLKM-UHFFFAOYSA-N

>  <inchikey>  (6) 
KKJOIKXBQAKLKM-UHFFFAOYSA-N

>  <tags>  (6) 
Fragmenstein placed

>  <SLURM_JOB_ID>  (6) 
303813

>  <score_inspiration>  (6) 
0.518725

>  <scratch_subdir>  (6) 
/opt/xchem-fragalysis-2/maxwin/BulkDock/SCRATCH/303813/C560-P5

>  <distance_score>  (6) 
0.929593

>  <ref_pdb>  (6) 
A0503a

>  <HIPPO Compound ID>  (6) 
560

>  <alias>  (6) 
None

>  <ref_mols>  (6) 
A0229a,A0503a

>  <name>  (6) 
KKJOIKXBQAKLKM-UHFFFAOYSA-N

>  <fragmenstein_runtime>  (6) 
1.211441

$$$$
284
     RDKit          3D

 24 27  0  0  0  0  0  0  0  0999 V2000
   21.9919    2.0122   25.4893 O   0  0  0  0  0  0  0  0  0  0  0  0
   22.2599    1.0515   24.8769 C   0  0  0  0  0  0  0  0  0  0  0  0
   21.4801   -0.2579   24.9632 C   0  0  0  0  0  0  0  0  0  0  0  0
   20.0921   -0.0708   25.5740 C   0  0  0  0  0  0  0  0  0  0  0  0
   19.1943    0.7020   24.7264 N   0  0  0  0  0  0  0  0  0  0  0  0
   18.8561    0.3632   23.4405 C   0  0  0  0  0  0  0  0  0  0  0  0
   18.0439    1.3532   22.9389 C   0  0  0  0  0  0  0  0  0  0  0  0
   17.8119    2.2918   23.9767 C   0  0  0  0  0  0  0  0  0  0  0  0
   17.0465    3.4711   24.0740 C   0  0  0  0  0  0  0  0  0  0  0  0
   17.0611    4.2020   25.2628 C   0  0  0  0  0  0  0  0  0  0  0  0
   17.8261    3.7619   26.3296 C   0  0  0  0  0  0  0  0  0  0  0  0
   17.8705    4.4747   27.4552 F   0  0  0  0  0  0  0  0  0  0  0  0
   18.5748    2.5938   26.2776 C   0  0  0  0  0  0  0  0  0  0  0  0
   18.5542    1.8678   25.0842 C   0  0  0  0  0  0  0  0  0  0  0  0
   23.4197    0.7886   23.8615 N   0  0  0  0  0  0  0  0  0  0  0  0
   24.4939    1.5950   23.4858 C   0  0  0  0  0  0  0  0  0  0  0  0
   24.6933    2.8586   24.0503 C   0  0  0  0  0  0  0  0  0  0  0  0
   25.7680    3.6573   23.6570 C   0  0  0  0  0  0  0  0  0  0  0  0
   26.6856    3.2200   22.6993 C   0  0  0  0  0  0  0  0  0  0  0  0
   26.4775    1.9562   22.1373 C   0  0  0  0  0  0  0  0  0  0  0  0
   27.2143    1.2783   21.1916 N   0  0  0  0  0  0  0  0  0  0  0  0
   26.6298    0.0722   20.9137 C   0  0  0  0  0  0  0  0  0  0  0  0
   25.5146   -0.0483   21.7108 C   0  0  0  0  0  0  0  0  0  0  0  0
   25.4043    1.1361   22.5009 C   0  0  0  0  0  0  0  0  0  0  0  0
  1  2  2  0
  2  3  1  0
  3  4  1  0
  4  5  1  0
  5  6  1  0
  6  7  2  0
  7  8  1  0
  8  9  2  0
  9 10  1  0
 10 11  2  0
 11 12  1  0
 11 13  1  0
 13 14  2  0
  2 15  1  0
 15 16  1  0
 16 17  2  0
 17 18  1  0
 18 19  2  0
 19 20  1  0
 20 21  1  0
 21 22  1  0
 22 23  2  0
 23 24  1  0
 14  5  1  0
 24 16  1  0
 14  8  1  0
 24 20  2  0
M  END
>  <fragmenstein_mode>  (7) 
expansion

>  <csv_name>  (7) 
A71EV2AZ_iter1_frags_knitwork_impure_split1000_batch000.csv

>  <HIPPO Pose ID>  (7) 
284

>  <energy_score>  (7) 
-19.085001

>  <fragmenstein_outcome>  (7) 
acceptable

>  <fragmenstein_error>  (7) 
None

>  <original SMILES>  (7) 
O=C(CCn1ccc2ccc(F)cc21)Nc1cccc2[nH]ccc12

>  <original ID>  (7) 
FPZNKJMIGIDAAL-UHFFFAOYSA-N

>  <inchikey>  (7) 
FPZNKJMIGIDAAL-UHFFFAOYSA-N

>  <tags>  (7) 
Fragmenstein placed

>  <SLURM_JOB_ID>  (7) 
303813

>  <score_inspiration>  (7) 
0.390509

>  <scratch_subdir>  (7) 
/opt/xchem-fragalysis-2/maxwin/BulkDock/SCRATCH/303813/C567-P5

>  <distance_score>  (7) 
0.951983

>  <ref_pdb>  (7) 
A0503a

>  <HIPPO Compound ID>  (7) 
567

>  <alias>  (7) 
None

>  <ref_mols>  (7) 
A0229a,A0503a

>  <name>  (7) 
FPZNKJMIGIDAAL-UHFFFAOYSA-N

>  <fragmenstein_runtime>  (7) 
2.459079

$$$$
286
     RDKit          3D

 24 27  0  0  0  0  0  0  0  0999 V2000
   21.9566    1.8773   25.6846 O   0  0  0  0  0  0  0  0  0  0  0  0
   22.2127    0.9145   25.0707 C   0  0  0  0  0  0  0  0  0  0  0  0
   21.3908   -0.3693   25.1152 C   0  0  0  0  0  0  0  0  0  0  0  0
   19.9829   -0.1377   25.6574 C   0  0  0  0  0  0  0  0  0  0  0  0
   19.1502    0.6661   24.7732 N   0  0  0  0  0  0  0  0  0  0  0  0
   18.8410    0.3323   23.4787 C   0  0  0  0  0  0  0  0  0  0  0  0
   18.0550    1.3330   22.9563 C   0  0  0  0  0  0  0  0  0  0  0  0
   17.8174    2.2799   23.9855 C   0  0  0  0  0  0  0  0  0  0  0  0
   17.0664    3.4697   24.0640 C   0  0  0  0  0  0  0  0  0  0  0  0
   17.0721    4.2074   25.2487 C   0  0  0  0  0  0  0  0  0  0  0  0
   17.8174    3.7658   26.3287 C   0  0  0  0  0  0  0  0  0  0  0  0
   17.8582    4.4874   27.4487 F   0  0  0  0  0  0  0  0  0  0  0  0
   18.5489    2.5863   26.2959 C   0  0  0  0  0  0  0  0  0  0  0  0
   18.5331    1.8509   25.1083 C   0  0  0  0  0  0  0  0  0  0  0  0
   23.4141    0.6117   24.1165 N   0  0  0  0  0  0  0  0  0  0  0  0
   24.4462    1.4358   23.6727 C   0  0  0  0  0  0  0  0  0  0  0  0
   24.5515    2.7581   24.0920 C   0  0  0  0  0  0  0  0  0  0  0  0
   25.5750    3.5863   23.6086 C   0  0  0  0  0  0  0  0  0  0  0  0
   26.5056    3.0732   22.6882 C   0  0  0  0  0  0  0  0  0  0  0  0
   27.6273    3.6189   22.0071 C   0  0  0  0  0  0  0  0  0  0  0  0
   28.1636    2.6246   21.2212 C   0  0  0  0  0  0  0  0  0  0  0  0
   27.4134    1.4931   21.4044 N   0  0  0  0  0  0  0  0  0  0  0  0
   26.3871    1.7420   22.2887 C   0  0  0  0  0  0  0  0  0  0  0  0
   25.3727    0.8989   22.7666 C   0  0  0  0  0  0  0  0  0  0  0  0
  1  2  2  0
  2  3  1  0
  3  4  1  0
  4  5  1  0
  5  6  1  0
  6  7  2  0
  7  8  1  0
  8  9  2  0
  9 10  1  0
 10 11  2  0
 11 12  1  0
 11 13  1  0
 13 14  2  0
  2 15  1  0
 15 16  1  0
 16 17  2  0
 17 18  1  0
 18 19  2  0
 19 20  1  0
 20 21  2  0
 21 22  1  0
 22 23  1  0
 23 24  2  0
 14  5  1  0
 24 16  1  0
 14  8  1  0
 23 19  1  0
M  END
>  <fragmenstein_mode>  (8) 
expansion

>  <csv_name>  (8) 
A71EV2AZ_iter1_frags_knitwork_impure_split1000_batch000.csv

>  <HIPPO Pose ID>  (8) 
286

>  <energy_score>  (8) 
-24.550771

>  <fragmenstein_outcome>  (8) 
acceptable

>  <fragmenstein_error>  (8) 
None

>  <original SMILES>  (8) 
O=C(CCn1ccc2ccc(F)cc21)Nc1ccc2cc[nH]c2c1

>  <original ID>  (8) 
ZWEJLFYSZKZFAV-UHFFFAOYSA-N

>  <inchikey>  (8) 
ZWEJLFYSZKZFAV-UHFFFAOYSA-N

>  <tags>  (8) 
Fragmenstein placed

>  <SLURM_JOB_ID>  (8) 
303813

>  <score_inspiration>  (8) 
0.388452

>  <scratch_subdir>  (8) 
/opt/xchem-fragalysis-2/maxwin/BulkDock/SCRATCH/303813/C568-P5

>  <distance_score>  (8) 
0.95359

>  <ref_pdb>  (8) 
A0503a

>  <HIPPO Compound ID>  (8) 
568

>  <alias>  (8) 
None

>  <ref_mols>  (8) 
A0229a,A0503a

>  <name>  (8) 
ZWEJLFYSZKZFAV-UHFFFAOYSA-N

>  <fragmenstein_runtime>  (8) 
1.984669

$$$$
288
     RDKit          3D

 21 23  0  0  0  0  0  0  0  0999 V2000
   21.1559   -1.3399   26.2155 C   0  0  0  0  0  0  0  0  0  0  0  0
   21.7653    0.0413   26.4734 C   0  0  2  0  0  0  0  0  0  0  0  0
   20.6761    1.0087   26.9522 C   0  0  0  0  0  0  0  0  0  0  0  0
   20.6738    1.4658   28.0296 O   0  0  0  0  0  0  0  0  0  0  0  0
   19.7398    1.2854   25.7342 N   0  0  0  0  0  0  0  0  0  0  0  0
   18.7117    2.2148   25.5751 C   0  0  0  0  0  0  0  0  0  0  0  0
   18.0315    2.1385   24.3398 C   0  0  0  0  0  0  0  0  0  0  0  0
   17.0338    3.0411   23.9950 C   0  0  0  0  0  0  0  0  0  0  0  0
   16.6804    4.0606   24.8654 C   0  0  0  0  0  0  0  0  0  0  0  0
   17.3626    4.1403   26.0810 C   0  0  0  0  0  0  0  0  0  0  0  0
   17.2033    5.0684   27.0805 N   0  0  0  0  0  0  0  0  0  0  0  0
   18.1021    4.8527   28.0799 C   0  0  0  0  0  0  0  0  0  0  0  0
   18.8110    3.7219   27.7478 C   0  0  0  0  0  0  0  0  0  0  0  0
   18.3646    3.2483   26.4762 C   0  0  0  0  0  0  0  0  0  0  0  0
   22.5802    0.6638   25.3410 C   0  0  0  0  0  0  0  0  0  0  0  0
   22.8491   -0.0157   24.1432 C   0  0  0  0  0  0  0  0  0  0  0  0
   23.6808    0.5470   23.1743 C   0  0  0  0  0  0  0  0  0  0  0  0
   24.2349    1.8002   23.3894 C   0  0  0  0  0  0  0  0  0  0  0  0
   25.0451    2.3231   22.4598 F   0  0  0  0  0  0  0  0  0  0  0  0
   23.9496    2.5172   24.5425 C   0  0  0  0  0  0  0  0  0  0  0  0
   23.1271    1.9514   25.5184 C   0  0  0  0  0  0  0  0  0  0  0  0
  2  1  1  6
  2  3  1  0
  3  4  2  0
  3  5  1  0
  5  6  1  0
  6  7  2  0
  7  8  1  0
  8  9  2  0
  9 10  1  0
 10 11  1  0
 11 12  1  0
 12 13  2  0
 13 14  1  0
  2 15  1  0
 15 16  2  0
 16 17  1  0
 17 18  2  0
 18 19  1  0
 18 20  1  0
 20 21  2  0
 14  6  1  0
 21 15  1  0
 14 10  2  0
M  END
>  <fragmenstein_mode>  (9) 
expansion

>  <csv_name>  (9) 
A71EV2AZ_iter1_frags_knitwork_impure_split1000_batch000.csv

>  <HIPPO Pose ID>  (9) 
288

>  <energy_score>  (9) 
-17.434799

>  <fragmenstein_outcome>  (9) 
acceptable

>  <fragmenstein_error>  (9) 
None

>  <original SMILES>  (9) 
C[C@H](C(=O)Nc1cccc2[nH]ccc12)c1ccc(F)cc1

>  <original ID>  (9) 
XJKPIWPADFNPCX-NSHDSACASA-N

>  <inchikey>  (9) 
XJKPIWPADFNPCX-NSHDSACASA-N

>  <tags>  (9) 
Fragmenstein placed

>  <SLURM_JOB_ID>  (9) 
303813

>  <score_inspiration>  (9) 
0.533469

>  <scratch_subdir>  (9) 
/opt/xchem-fragalysis-2/maxwin/BulkDock/SCRATCH/303813/C569-P5

>  <distance_score>  (9) 
0.978007

>  <ref_pdb>  (9) 
A0503a

>  <HIPPO Compound ID>  (9) 
569

>  <alias>  (9) 
None

>  <ref_mols>  (9) 
A0229a,A0503a

>  <name>  (9) 
XJKPIWPADFNPCX-NSHDSACASA-N

>  <fragmenstein_runtime>  (9) 
1.652169

$$$$
639
     RDKit          3D

 20 21  0  0  0  0  0  0  0  0999 V2000
   26.4598    2.4612   22.6637 C   0  0  0  0  0  0  0  0  0  0  0  0
   25.3653    1.4441   23.0340 C   0  0  0  0  0  0  0  0  0  0  0  0
   26.0745    0.2340   23.6809 C   0  0  0  0  0  0  0  0  0  0  0  0
   24.7232    0.9951   21.7042 C   0  0  0  0  0  0  0  0  0  0  0  0
   24.2534    2.0613   23.9794 C   0  0  2  0  0  0  0  0  0  0  0  0
   24.8183    2.9092   25.1506 C   0  0  0  0  0  0  0  0  0  0  0  0
   23.8111    3.7404   25.7312 O   0  0  0  0  0  0  0  0  0  0  0  0
   23.3602    0.9692   24.4385 N   0  0  0  0  0  0  0  0  0  0  0  0
   22.0846    1.3811   25.0291 C   0  0  0  0  0  0  0  0  0  0  0  0
   21.3416    0.0954   25.4207 C   0  0  0  0  0  0  0  0  0  0  0  0
   19.9597    0.3317   26.0208 C   0  0  0  0  0  0  0  0  0  0  0  0
   19.0409    1.0057   25.1306 N   0  0  0  0  0  0  0  0  0  0  0  0
   18.6602    0.5602   23.8942 C   0  0  0  0  0  0  0  0  0  0  0  0
   17.8185    1.3864   23.3167 N   0  0  0  0  0  0  0  0  0  0  0  0
   17.6239    2.3914   24.2310 C   0  0  0  0  0  0  0  0  0  0  0  0
   16.8030    3.5201   24.1498 C   0  0  0  0  0  0  0  0  0  0  0  0
   16.7716    4.4057   25.2285 C   0  0  0  0  0  0  0  0  0  0  0  0
   17.5438    4.1835   26.3661 C   0  0  0  0  0  0  0  0  0  0  0  0
   18.3639    3.0588   26.4723 C   0  0  0  0  0  0  0  0  0  0  0  0
   18.3812    2.1814   25.3817 C   0  0  0  0  0  0  0  0  0  0  0  0
  1  2  1  0
  2  3  1  0
  2  4  1  0
  2  5  1  0
  5  6  1  1
  6  7  1  0
  5  8  1  0
  8  9  1  0
  9 10  1  0
 10 11  1  0
 11 12  1  0
 12 13  1  0
 13 14  2  0
 14 15  1  0
 15 16  2  0
 16 17  1  0
 17 18  2  0
 18 19  1  0
 19 20  2  0
 20 12  1  0
 20 15  1  0
M  END
>  <fragmenstein_mode>  (10) 
expansion

>  <csv_name>  (10) 
A71EV2AZ_iter1_frags_knitwork_impure_split1000_batch000.csv

>  <HIPPO Pose ID>  (10) 
639

>  <energy_score>  (10) 
-30.183096

>  <fragmenstein_outcome>  (10) 
acceptable

>  <fragmenstein_error>  (10) 
None

>  <original SMILES>  (10) 
CC(C)(C)[C@H](CO)NCCCn1cnc2ccccc21

>  <original ID>  (10) 
MTJZKQZCPYWVOW-HNNXBMFYSA-N

>  <inchikey>  (10) 
MTJZKQZCPYWVOW-HNNXBMFYSA-N

>  <tags>  (10) 
Fragmenstein placed

>  <SLURM_JOB_ID>  (10) 
303813

>  <score_inspiration>  (10) 
0.637829

>  <scratch_subdir>  (10) 
/opt/xchem-fragalysis-2/maxwin/BulkDock/SCRATCH/303813/C814-P5

>  <distance_score>  (10) 
0.70871

>  <ref_pdb>  (10) 
A0503a

>  <HIPPO Compound ID>  (10) 
814

>  <alias>  (10) 
None

>  <ref_mols>  (10) 
A0503a,A0759a

>  <name>  (10) 
MTJZKQZCPYWVOW-HNNXBMFYSA-N

>  <fragmenstein_runtime>  (10) 
2.384831

$$$$
640
     RDKit          3D

 20 21  0  0  0  0  0  0  0  0999 V2000
   26.5022    1.4713   22.8057 C   0  0  0  0  0  0  0  0  0  0  0  0
   24.9870    1.2018   22.6813 C   0  0  0  0  0  0  0  0  0  0  0  0
   24.7952   -0.0931   21.8628 C   0  0  0  0  0  0  0  0  0  0  0  0
   24.3707    2.3754   21.8827 C   0  0  0  0  0  0  0  0  0  0  0  0
   24.3208    1.1133   24.1115 C   0  0  2  0  0  0  0  0  0  0  0  0
   24.8249   -0.1112   24.9280 C   0  0  0  0  0  0  0  0  0  0  0  0
   24.5915    0.0453   26.3285 O   0  0  0  0  0  0  0  0  0  0  0  0
   22.8637    1.0706   23.9220 N   0  0  0  0  0  0  0  0  0  0  0  0
   22.0169    1.3679   25.0714 C   0  0  0  0  0  0  0  0  0  0  0  0
   21.3665    0.0894   25.6189 C   0  0  0  0  0  0  0  0  0  0  0  0
   20.0167    0.3330   26.2883 C   0  0  0  0  0  0  0  0  0  0  0  0
   19.0217    0.8820   25.3892 N   0  0  0  0  0  0  0  0  0  0  0  0
   18.6174    0.3289   24.2040 C   0  0  0  0  0  0  0  0  0  0  0  0
   17.7336    1.0806   23.5890 N   0  0  0  0  0  0  0  0  0  0  0  0
   17.5323    2.1458   24.4309 C   0  0  0  0  0  0  0  0  0  0  0  0
   16.6582    3.2268   24.2993 C   0  0  0  0  0  0  0  0  0  0  0  0
   16.6115    4.1733   25.3235 C   0  0  0  0  0  0  0  0  0  0  0  0
   17.4308    4.0724   26.4450 C   0  0  0  0  0  0  0  0  0  0  0  0
   18.3154    3.0059   26.5917 C   0  0  0  0  0  0  0  0  0  0  0  0
   18.3288    2.0506   25.5695 C   0  0  0  0  0  0  0  0  0  0  0  0
  1  2  1  0
  2  3  1  0
  2  4  1  0
  2  5  1  0
  5  6  1  6
  6  7  1  0
  5  8  1  0
  8  9  1  0
  9 10  1  0
 10 11  1  0
 11 12  1  0
 12 13  1  0
 13 14  2  0
 14 15  1  0
 15 16  2  0
 16 17  1  0
 17 18  2  0
 18 19  1  0
 19 20  2  0
 20 12  1  0
 20 15  1  0
M  END
>  <fragmenstein_mode>  (11) 
expansion

>  <csv_name>  (11) 
A71EV2AZ_iter1_frags_knitwork_impure_split1000_batch000.csv

>  <HIPPO Pose ID>  (11) 
640

>  <energy_score>  (11) 
-23.854571

>  <fragmenstein_outcome>  (11) 
acceptable

>  <fragmenstein_error>  (11) 
None

>  <original SMILES>  (11) 
CC(C)(C)[C@H](CO)NCCCn1cnc2ccccc21

>  <original ID>  (11) 
MTJZKQZCPYWVOW-HNNXBMFYSA-N

>  <inchikey>  (11) 
MTJZKQZCPYWVOW-HNNXBMFYSA-N

>  <tags>  (11) 
Fragmenstein placed

>  <SLURM_JOB_ID>  (11) 
303813

>  <score_inspiration>  (11) 
0.644494

>  <scratch_subdir>  (11) 
/opt/xchem-fragalysis-2/maxwin/BulkDock/SCRATCH/303813/C814-P6

>  <distance_score>  (11) 
0.613339

>  <ref_pdb>  (11) 
A0759a

>  <HIPPO Compound ID>  (11) 
814

>  <alias>  (11) 
None

>  <ref_mols>  (11) 
A0503a,A0759a

>  <name>  (11) 
MTJZKQZCPYWVOW-HNNXBMFYSA-N

>  <fragmenstein_runtime>  (11) 
1.951354

$$$$
655
     RDKit          3D

 21 22  0  0  0  0  0  0  0  0999 V2000
   27.0561    1.1923   22.4057 C   0  0  0  0  0  0  0  0  0  0  0  0
   25.9711    0.4210   23.1485 C   0  0  0  0  0  0  0  0  0  0  0  0
   24.6120    1.1484   23.3424 C   0  0  1  0  0  0  0  0  0  0  0  0
   24.1224    1.4515   22.0112 O   0  0  0  0  0  0  0  0  0  0  0  0
   23.6066    0.1768   24.0607 C   0  0  0  0  0  0  0  0  0  0  0  0
   22.3283    0.7690   24.5288 N   0  0  0  0  0  0  0  0  0  0  0  0
   21.4887   -0.2087   25.2343 C   0  0  0  0  0  0  0  0  0  0  0  0
   20.2336    0.3825   25.9041 C   0  0  0  0  0  0  0  0  0  0  0  0
   19.2691    1.0067   25.0233 N   0  0  0  0  0  0  0  0  0  0  0  0
   18.8751    0.5515   23.7954 C   0  0  0  0  0  0  0  0  0  0  0  0
   17.9886    1.3454   23.2389 N   0  0  0  0  0  0  0  0  0  0  0  0
   17.7603    2.3311   24.1666 C   0  0  0  0  0  0  0  0  0  0  0  0
   16.8928    3.4284   24.1074 C   0  0  0  0  0  0  0  0  0  0  0  0
   16.8317    4.3007   25.1969 C   0  0  0  0  0  0  0  0  0  0  0  0
   17.6102    4.0834   26.3314 C   0  0  0  0  0  0  0  0  0  0  0  0
   18.4752    2.9887   26.4166 C   0  0  0  0  0  0  0  0  0  0  0  0
   18.5370    2.1365   25.3066 C   0  0  0  0  0  0  0  0  0  0  0  0
   24.7711    2.4172   24.1952 C   0  0  0  0  0  0  0  0  0  0  0  0
   25.5592    3.3136   23.5514 F   0  0  0  0  0  0  0  0  0  0  0  0
   23.5853    3.0171   24.4111 F   0  0  0  0  0  0  0  0  0  0  0  0
   25.3432    2.1525   25.3902 F   0  0  0  0  0  0  0  0  0  0  0  0
  1  2  1  0
  2  3  1  0
  3  4  1  6
  3  5  1  0
  5  6  1  0
  6  7  1  0
  7  8  1  0
  8  9  1  0
  9 10  1  0
 10 11  2  0
 11 12  1  0
 12 13  2  0
 13 14  1  0
 14 15  2  0
 15 16  1  0
 16 17  2  0
  3 18  1  0
 18 19  1  0
 18 20  1  0
 18 21  1  0
 17  9  1  0
 17 12  1  0
M  END
>  <fragmenstein_mode>  (12) 
expansion

>  <csv_name>  (12) 
A71EV2AZ_iter1_frags_knitwork_impure_split1000_batch000.csv

>  <HIPPO Pose ID>  (12) 
655

>  <energy_score>  (12) 
-29.755296

>  <fragmenstein_outcome>  (12) 
acceptable

>  <fragmenstein_error>  (12) 
None

>  <original SMILES>  (12) 
CC[C@@](O)(CNCCn1cnc2ccccc21)C(F)(F)F

>  <original ID>  (12) 
DORAXVZOXFTIJX-CYBMUJFWSA-N

>  <inchikey>  (12) 
DORAXVZOXFTIJX-CYBMUJFWSA-N

>  <tags>  (12) 
Fragmenstein placed

>  <SLURM_JOB_ID>  (12) 
303813

>  <score_inspiration>  (12) 
0.668978

>  <scratch_subdir>  (12) 
/opt/xchem-fragalysis-2/maxwin/BulkDock/SCRATCH/303813/C829-P5

>  <distance_score>  (12) 
0.866449

>  <ref_pdb>  (12) 
A0503a

>  <HIPPO Compound ID>  (12) 
829

>  <alias>  (12) 
None

>  <ref_mols>  (12) 
A0503a,A0759a

>  <name>  (12) 
DORAXVZOXFTIJX-CYBMUJFWSA-N

>  <fragmenstein_runtime>  (12) 
1.508812

$$$$
656
     RDKit          3D

 21 22  0  0  0  0  0  0  0  0999 V2000
   26.8480    0.9313   21.9953 C   0  0  0  0  0  0  0  0  0  0  0  0
   25.7013    0.2815   22.7424 C   0  0  0  0  0  0  0  0  0  0  0  0
   24.5281    1.1979   23.1818 C   0  0  1  0  0  0  0  0  0  0  0  0
   23.9960    1.8690   22.0116 O   0  0  0  0  0  0  0  0  0  0  0  0
   23.4291    0.2704   23.8106 C   0  0  0  0  0  0  0  0  0  0  0  0
   22.2903    0.9257   24.4909 N   0  0  0  0  0  0  0  0  0  0  0  0
   21.5275   -0.0576   25.2855 C   0  0  0  0  0  0  0  0  0  0  0  0
   20.2867    0.4993   25.9967 C   0  0  0  0  0  0  0  0  0  0  0  0
   19.2540    1.0199   25.1283 N   0  0  0  0  0  0  0  0  0  0  0  0
   18.8092    0.4629   23.9612 C   0  0  0  0  0  0  0  0  0  0  0  0
   17.8489    1.1723   23.4143 N   0  0  0  0  0  0  0  0  0  0  0  0
   17.6230    2.1996   24.2963 C   0  0  0  0  0  0  0  0  0  0  0  0
   16.6718    3.2215   24.2466 C   0  0  0  0  0  0  0  0  0  0  0  0
   16.6198    4.1387   25.2975 C   0  0  0  0  0  0  0  0  0  0  0  0
   17.4984    4.0568   26.3745 C   0  0  0  0  0  0  0  0  0  0  0  0
   18.4582    3.0477   26.4411 C   0  0  0  0  0  0  0  0  0  0  0  0
   18.4887    2.1302   25.3842 C   0  0  0  0  0  0  0  0  0  0  0  0
   24.9964    2.2071   24.2340 C   0  0  0  0  0  0  0  0  0  0  0  0
   25.9152    3.0701   23.7390 F   0  0  0  0  0  0  0  0  0  0  0  0
   23.9722    2.9612   24.6813 F   0  0  0  0  0  0  0  0  0  0  0  0
   25.5614    1.6046   25.3056 F   0  0  0  0  0  0  0  0  0  0  0  0
  1  2  1  0
  2  3  1  0
  3  4  1  6
  3  5  1  0
  5  6  1  0
  6  7  1  0
  7  8  1  0
  8  9  1  0
  9 10  1  0
 10 11  2  0
 11 12  1  0
 12 13  2  0
 13 14  1  0
 14 15  2  0
 15 16  1  0
 16 17  2  0
  3 18  1  0
 18 19  1  0
 18 20  1  0
 18 21  1  0
 17  9  1  0
 17 12  1  0
M  END
>  <fragmenstein_mode>  (13) 
expansion

>  <csv_name>  (13) 
A71EV2AZ_iter1_frags_knitwork_impure_split1000_batch000.csv

>  <HIPPO Pose ID>  (13) 
656

>  <energy_score>  (13) 
-30.561384

>  <fragmenstein_outcome>  (13) 
acceptable

>  <fragmenstein_error>  (13) 
None

>  <original SMILES>  (13) 
CC[C@@](O)(CNCCn1cnc2ccccc21)C(F)(F)F

>  <original ID>  (13) 
DORAXVZOXFTIJX-CYBMUJFWSA-N

>  <inchikey>  (13) 
DORAXVZOXFTIJX-CYBMUJFWSA-N

>  <tags>  (13) 
Fragmenstein placed

>  <SLURM_JOB_ID>  (13) 
303813

>  <score_inspiration>  (13) 
0.675062

>  <scratch_subdir>  (13) 
/opt/xchem-fragalysis-2/maxwin/BulkDock/SCRATCH/303813/C829-P6

>  <distance_score>  (13) 
0.892699

>  <ref_pdb>  (13) 
A0759a

>  <HIPPO Compound ID>  (13) 
829

>  <alias>  (13) 
None

>  <ref_mols>  (13) 
A0503a,A0759a

>  <name>  (13) 
DORAXVZOXFTIJX-CYBMUJFWSA-N

>  <fragmenstein_runtime>  (13) 
1.70083

$$$$
660
     RDKit          3D

 18 19  0  0  0  0  0  0  0  0999 V2000
   28.1647    2.9068   22.5196 C   0  0  0  0  0  0  0  0  0  0  0  0
   27.1700    1.7534   22.5822 C   0  0  0  0  0  0  0  0  0  0  0  0
   25.7269    2.2498   22.7101 C   0  0  1  0  0  0  0  0  0  0  0  0
   25.2126    2.5558   21.4088 O   0  0  0  0  0  0  0  0  0  0  0  0
   24.8603    1.1905   23.4027 C   0  0  0  0  0  0  0  0  0  0  0  0
   23.4566    1.6061   23.5071 N   0  0  0  0  0  0  0  0  0  0  0  0
   22.8682    0.9507   24.6738 C   0  0  0  0  0  0  0  0  0  0  0  0
   21.4055    1.2880   24.8284 C   0  0  0  0  0  0  0  0  0  0  0  0
   20.4810    0.4182   23.9525 C   0  0  0  0  0  0  0  0  0  0  0  0
   19.0833    0.8112   24.2746 C   0  0  0  0  0  0  0  0  0  0  0  0
   18.2546    1.5141   23.5290 N   0  0  0  0  0  0  0  0  0  0  0  0
   17.6478    2.3476   24.4372 C   0  0  0  0  0  0  0  0  0  0  0  0
   16.8264    3.4532   24.2443 C   0  0  0  0  0  0  0  0  0  0  0  0
   16.5375    4.2534   25.3511 C   0  0  0  0  0  0  0  0  0  0  0  0
   17.0672    3.9858   26.6121 C   0  0  0  0  0  0  0  0  0  0  0  0
   17.8128    2.8358   26.8414 C   0  0  0  0  0  0  0  0  0  0  0  0
   18.0353    2.0300   25.7322 C   0  0  0  0  0  0  0  0  0  0  0  0
   18.6667    0.8260   25.5867 N   0  0  0  0  0  0  0  0  0  0  0  0
  1  2  1  0
  2  3  1  0
  3  4  1  6
  3  5  1  0
  5  6  1  0
  6  7  1  0
  7  8  1  0
  8  9  1  0
  9 10  1  0
 10 11  2  0
 11 12  1  0
 12 13  2  0
 13 14  1  0
 14 15  2  0
 15 16  1  0
 16 17  2  0
 17 18  1  0
 18 10  1  0
 17 12  1  0
M  END
>  <fragmenstein_mode>  (14) 
expansion

>  <csv_name>  (14) 
A71EV2AZ_iter1_frags_knitwork_impure_split1000_batch000.csv

>  <HIPPO Pose ID>  (14) 
660

>  <energy_score>  (14) 
-8.904489

>  <fragmenstein_outcome>  (14) 
acceptable

>  <fragmenstein_error>  (14) 
None

>  <original SMILES>  (14) 
CC[C@@H](O)CNCCCc1nc2ccccc2[nH]1

>  <original ID>  (14) 
XKXFQMQGFBONRE-LLVKDONJSA-N

>  <inchikey>  (14) 
XKXFQMQGFBONRE-LLVKDONJSA-N

>  <tags>  (14) 
Fragmenstein placed

>  <SLURM_JOB_ID>  (14) 
303813

>  <score_inspiration>  (14) 
0.667919

>  <scratch_subdir>  (14) 
/opt/xchem-fragalysis-2/maxwin/BulkDock/SCRATCH/303813/C831-P6

>  <distance_score>  (14) 
0.984471

>  <ref_pdb>  (14) 
A0759a

>  <HIPPO Compound ID>  (14) 
831

>  <alias>  (14) 
None

>  <ref_mols>  (14) 
A0503a,A0759a

>  <name>  (14) 
XKXFQMQGFBONRE-LLVKDONJSA-N

>  <fragmenstein_runtime>  (14) 
1.497005

$$$$
663
     RDKit          3D

 18 19  0  0  0  0  0  0  0  0999 V2000
   24.8898    1.5231   21.3077 C   0  0  0  0  0  0  0  0  0  0  0  0
   24.9499    1.6303   22.8290 C   0  0  0  0  0  0  0  0  0  0  0  0
   26.4082    1.4767   23.2726 C   0  0  0  0  0  0  0  0  0  0  0  0
   24.1260    0.5750   23.4275 N   0  0  0  0  0  0  0  0  0  0  0  0
   22.7695    0.9962   23.8752 C   0  0  2  0  0  0  0  0  0  0  0  0
   22.9013    1.7894   25.1998 C   0  0  0  0  0  0  0  0  0  0  0  0
   21.6655    1.9514   25.8804 O   0  0  0  0  0  0  0  0  0  0  0  0
   21.8700   -0.2696   24.0652 C   0  0  0  0  0  0  0  0  0  0  0  0
   20.3011   -0.3321   23.1042 S   0  0  0  0  0  0  0  0  0  0  0  0
   19.2647    0.8391   23.8288 C   0  0  0  0  0  0  0  0  0  0  0  0
   18.3681    1.5628   23.1987 N   0  0  0  0  0  0  0  0  0  0  0  0
   17.8912    2.4346   24.1495 C   0  0  0  0  0  0  0  0  0  0  0  0
   16.9884    3.4959   24.0302 C   0  0  0  0  0  0  0  0  0  0  0  0
   16.7627    4.3141   25.1416 C   0  0  0  0  0  0  0  0  0  0  0  0
   17.4060    4.0737   26.3547 C   0  0  0  0  0  0  0  0  0  0  0  0
   18.2629    2.9833   26.5155 C   0  0  0  0  0  0  0  0  0  0  0  0
   18.4791    2.1950   25.3855 C   0  0  0  0  0  0  0  0  0  0  0  0
   19.2818    1.1072   25.1638 N   0  0  0  0  0  0  0  0  0  0  0  0
  1  2  1  0
  2  3  1  0
  2  4  1  0
  4  5  1  0
  5  6  1  1
  6  7  1  0
  5  8  1  0
  8  9  1  0
  9 10  1  0
 10 11  2  0
 11 12  1  0
 12 13  2  0
 13 14  1  0
 14 15  2  0
 15 16  1  0
 16 17  2  0
 17 18  1  0
 18 10  1  0
 17 12  1  0
M  END
>  <fragmenstein_mode>  (15) 
expansion

>  <csv_name>  (15) 
A71EV2AZ_iter1_frags_knitwork_impure_split1000_batch000.csv

>  <HIPPO Pose ID>  (15) 
663

>  <energy_score>  (15) 
-20.366687

>  <fragmenstein_outcome>  (15) 
acceptable

>  <fragmenstein_error>  (15) 
None

>  <original SMILES>  (15) 
CC(C)N[C@H](CO)CSc1nc2ccccc2[nH]1

>  <original ID>  (15) 
XXOPXEFSXATLRK-SNVBAGLBSA-N

>  <inchikey>  (15) 
XXOPXEFSXATLRK-SNVBAGLBSA-N

>  <tags>  (15) 
Fragmenstein placed

>  <SLURM_JOB_ID>  (15) 
303813

>  <score_inspiration>  (15) 
0.607389

>  <scratch_subdir>  (15) 
/opt/xchem-fragalysis-2/maxwin/BulkDock/SCRATCH/303813/C837-P5

>  <distance_score>  (15) 
0.897247

>  <ref_pdb>  (15) 
A0503a

>  <HIPPO Compound ID>  (15) 
837

>  <alias>  (15) 
None

>  <ref_mols>  (15) 
A0503a,A0759a

>  <name>  (15) 
XXOPXEFSXATLRK-SNVBAGLBSA-N

>  <fragmenstein_runtime>  (15) 
1.561325

$$$$
664
     RDKit          3D

 18 19  0  0  0  0  0  0  0  0999 V2000
   24.4378    2.5055   21.8387 C   0  0  0  0  0  0  0  0  0  0  0  0
   24.7976    1.8873   23.1883 C   0  0  0  0  0  0  0  0  0  0  0  0
   26.2333    1.3508   23.1247 C   0  0  0  0  0  0  0  0  0  0  0  0
   23.9203    0.7941   23.6201 N   0  0  0  0  0  0  0  0  0  0  0  0
   22.4504    1.0253   23.5125 C   0  0  2  0  0  0  0  0  0  0  0  0
   21.9747    2.1387   24.4709 C   0  0  0  0  0  0  0  0  0  0  0  0
   21.7820    1.6552   25.7958 O   0  0  0  0  0  0  0  0  0  0  0  0
   21.7297   -0.3346   23.7692 C   0  0  0  0  0  0  0  0  0  0  0  0
   20.0522   -0.5533   23.0575 S   0  0  0  0  0  0  0  0  0  0  0  0
   19.0812    0.6073   23.8705 C   0  0  0  0  0  0  0  0  0  0  0  0
   18.2537    1.4434   23.2931 N   0  0  0  0  0  0  0  0  0  0  0  0
   17.8402    2.2738   24.3041 C   0  0  0  0  0  0  0  0  0  0  0  0
   16.9985    3.3872   24.2598 C   0  0  0  0  0  0  0  0  0  0  0  0
   16.8037    4.1235   25.4297 C   0  0  0  0  0  0  0  0  0  0  0  0
   17.4320    3.7671   26.6218 C   0  0  0  0  0  0  0  0  0  0  0  0
   18.2397    2.6300   26.7000 C   0  0  0  0  0  0  0  0  0  0  0  0
   18.4100    1.9068   25.5194 C   0  0  0  0  0  0  0  0  0  0  0  0
   19.1193    0.7705   25.2238 N   0  0  0  0  0  0  0  0  0  0  0  0
  1  2  1  0
  2  3  1  0
  2  4  1  0
  4  5  1  0
  5  6  1  1
  6  7  1  0
  5  8  1  0
  8  9  1  0
  9 10  1  0
 10 11  2  0
 11 12  1  0
 12 13  2  0
 13 14  1  0
 14 15  2  0
 15 16  1  0
 16 17  2  0
 17 18  1  0
 18 10  1  0
 17 12  1  0
M  END
>  <fragmenstein_mode>  (16) 
expansion

>  <csv_name>  (16) 
A71EV2AZ_iter1_frags_knitwork_impure_split1000_batch000.csv

>  <HIPPO Pose ID>  (16) 
664

>  <energy_score>  (16) 
-27.631382

>  <fragmenstein_outcome>  (16) 
acceptable

>  <fragmenstein_error>  (16) 
None

>  <original SMILES>  (16) 
CC(C)N[C@H](CO)CSc1nc2ccccc2[nH]1

>  <original ID>  (16) 
XXOPXEFSXATLRK-SNVBAGLBSA-N

>  <inchikey>  (16) 
XXOPXEFSXATLRK-SNVBAGLBSA-N

>  <tags>  (16) 
Fragmenstein placed

>  <SLURM_JOB_ID>  (16) 
303813

>  <score_inspiration>  (16) 
0.608675

>  <scratch_subdir>  (16) 
/opt/xchem-fragalysis-2/maxwin/BulkDock/SCRATCH/303813/C837-P6

>  <distance_score>  (16) 
0.848134

>  <ref_pdb>  (16) 
A0759a

>  <HIPPO Compound ID>  (16) 
837

>  <alias>  (16) 
None

>  <ref_mols>  (16) 
A0503a,A0759a

>  <name>  (16) 
XXOPXEFSXATLRK-SNVBAGLBSA-N

>  <fragmenstein_runtime>  (16) 
1.915059

$$$$
671
     RDKit          3D

 16 17  0  0  0  0  0  0  0  0999 V2000
   25.0034    1.4883   22.2941 O   0  0  0  0  0  0  0  0  0  0  0  0
   24.6920    1.9335   23.6096 C   0  0  0  0  0  0  0  0  0  0  0  0
   23.3067    1.4327   23.9873 C   0  0  0  0  0  0  0  0  0  0  0  0
   22.9387    1.8693   25.4026 C   0  0  0  0  0  0  0  0  0  0  0  0
   21.5314    1.6618   25.7330 N   0  0  0  0  0  0  0  0  0  0  0  0
   21.1337    0.2526   25.7412 C   0  0  0  0  0  0  0  0  0  0  0  0
   19.6370    0.0850   26.0216 C   0  0  0  0  0  0  0  0  0  0  0  0
   18.8152    0.8491   25.1056 N   0  0  0  0  0  0  0  0  0  0  0  0
   18.5156    0.4916   23.8207 C   0  0  0  0  0  0  0  0  0  0  0  0
   17.7422    1.3790   23.2370 N   0  0  0  0  0  0  0  0  0  0  0  0
   17.5541    2.3608   24.1800 C   0  0  0  0  0  0  0  0  0  0  0  0
   16.8123    3.5433   24.1027 C   0  0  0  0  0  0  0  0  0  0  0  0
   16.7892    4.3978   25.2070 C   0  0  0  0  0  0  0  0  0  0  0  0
   17.4964    4.0953   26.3671 C   0  0  0  0  0  0  0  0  0  0  0  0
   18.2244    2.9097   26.4757 C   0  0  0  0  0  0  0  0  0  0  0  0
   18.2270    2.0619   25.3615 C   0  0  0  0  0  0  0  0  0  0  0  0
  1  2  1  0
  2  3  1  0
  3  4  1  0
  4  5  1  0
  5  6  1  0
  6  7  1  0
  7  8  1  0
  8  9  1  0
  9 10  2  0
 10 11  1  0
 11 12  2  0
 12 13  1  0
 13 14  2  0
 14 15  1  0
 15 16  2  0
 16  8  1  0
 16 11  1  0
M  END
>  <fragmenstein_mode>  (17) 
expansion

>  <csv_name>  (17) 
A71EV2AZ_iter1_frags_knitwork_impure_split1000_batch000.csv

>  <HIPPO Pose ID>  (17) 
671

>  <energy_score>  (17) 
-14.762561

>  <fragmenstein_outcome>  (17) 
acceptable

>  <fragmenstein_error>  (17) 
None

>  <original SMILES>  (17) 
OCCCNCCn1cnc2ccccc21

>  <original ID>  (17) 
MDJFAQNWAZYQKE-UHFFFAOYSA-N

>  <inchikey>  (17) 
MDJFAQNWAZYQKE-UHFFFAOYSA-N

>  <tags>  (17) 
Fragmenstein placed

>  <SLURM_JOB_ID>  (17) 
303813

>  <score_inspiration>  (17) 
0.732698

>  <scratch_subdir>  (17) 
/opt/xchem-fragalysis-2/maxwin/BulkDock/SCRATCH/303813/C843-P5

>  <distance_score>  (17) 
0.666919

>  <ref_pdb>  (17) 
A0503a

>  <HIPPO Compound ID>  (17) 
843

>  <alias>  (17) 
None

>  <ref_mols>  (17) 
A0503a,A0759a

>  <name>  (17) 
MDJFAQNWAZYQKE-UHFFFAOYSA-N

>  <fragmenstein_runtime>  (17) 
0.764983

$$$$
672
     RDKit          3D

 16 17  0  0  0  0  0  0  0  0999 V2000
   24.9144    1.3311   21.9090 O   0  0  0  0  0  0  0  0  0  0  0  0
   24.5487    1.8804   23.1668 C   0  0  0  0  0  0  0  0  0  0  0  0
   23.1647    1.3746   23.5514 C   0  0  0  0  0  0  0  0  0  0  0  0
   22.8231    1.8226   24.9660 C   0  0  0  0  0  0  0  0  0  0  0  0
   21.4474    1.5750   25.3513 N   0  0  0  0  0  0  0  0  0  0  0  0
   21.1368    0.1691   25.5930 C   0  0  0  0  0  0  0  0  0  0  0  0
   19.6736   -0.0306   26.0040 C   0  0  0  0  0  0  0  0  0  0  0  0
   18.7545    0.6864   25.1453 N   0  0  0  0  0  0  0  0  0  0  0  0
   18.3825    0.3098   23.8856 C   0  0  0  0  0  0  0  0  0  0  0  0
   17.5563    1.1757   23.3432 N   0  0  0  0  0  0  0  0  0  0  0  0
   17.4087    2.1617   24.2891 C   0  0  0  0  0  0  0  0  0  0  0  0
   16.6306    3.3203   24.2548 C   0  0  0  0  0  0  0  0  0  0  0  0
   16.6510    4.1751   25.3581 C   0  0  0  0  0  0  0  0  0  0  0  0
   17.4356    3.9035   26.4745 C   0  0  0  0  0  0  0  0  0  0  0  0
   18.2047    2.7430   26.5381 C   0  0  0  0  0  0  0  0  0  0  0  0
   18.1573    1.8880   25.4297 C   0  0  0  0  0  0  0  0  0  0  0  0
  1  2  1  0
  2  3  1  0
  3  4  1  0
  4  5  1  0
  5  6  1  0
  6  7  1  0
  7  8  1  0
  8  9  1  0
  9 10  2  0
 10 11  1  0
 11 12  2  0
 12 13  1  0
 13 14  2  0
 14 15  1  0
 15 16  2  0
 16  8  1  0
 16 11  1  0
M  END
>  <fragmenstein_mode>  (18) 
expansion

>  <csv_name>  (18) 
A71EV2AZ_iter1_frags_knitwork_impure_split1000_batch000.csv

>  <HIPPO Pose ID>  (18) 
672

>  <energy_score>  (18) 
-13.605335

>  <fragmenstein_outcome>  (18) 
acceptable

>  <fragmenstein_error>  (18) 
None

>  <original SMILES>  (18) 
OCCCNCCn1cnc2ccccc21

>  <original ID>  (18) 
MDJFAQNWAZYQKE-UHFFFAOYSA-N

>  <inchikey>  (18) 
MDJFAQNWAZYQKE-UHFFFAOYSA-N

>  <tags>  (18) 
Fragmenstein placed

>  <SLURM_JOB_ID>  (18) 
303813

>  <score_inspiration>  (18) 
0.688853

>  <scratch_subdir>  (18) 
/opt/xchem-fragalysis-2/maxwin/BulkDock/SCRATCH/303813/C843-P6

>  <distance_score>  (18) 
0.741837

>  <ref_pdb>  (18) 
A0759a

>  <HIPPO Compound ID>  (18) 
843

>  <alias>  (18) 
None

>  <ref_mols>  (18) 
A0503a,A0759a

>  <name>  (18) 
MDJFAQNWAZYQKE-UHFFFAOYSA-N

>  <fragmenstein_runtime>  (18) 
0.916841

$$$$
679
     RDKit          3D

 16 17  0  0  0  0  0  0  0  0999 V2000
   23.7066    2.8413   26.0875 C   0  0  0  0  0  0  0  0  0  0  0  0
   23.0760    1.5735   25.4996 C   0  0  2  0  0  0  0  0  0  0  0  0
   23.2615    1.5120   23.9706 C   0  0  0  0  0  0  0  0  0  0  0  0
   24.5996    1.7882   23.5746 O   0  0  0  0  0  0  0  0  0  0  0  0
   21.6496    1.5170   25.8680 N   0  0  0  0  0  0  0  0  0  0  0  0
   21.1264    0.1472   25.7801 C   0  0  0  0  0  0  0  0  0  0  0  0
   19.6233    0.0745   26.0564 C   0  0  0  0  0  0  0  0  0  0  0  0
   18.8475    0.8616   25.1220 N   0  0  0  0  0  0  0  0  0  0  0  0
   18.5494    0.4990   23.8379 C   0  0  0  0  0  0  0  0  0  0  0  0
   17.7893    1.3911   23.2449 N   0  0  0  0  0  0  0  0  0  0  0  0
   17.5946    2.3731   24.1862 C   0  0  0  0  0  0  0  0  0  0  0  0
   16.8459    3.5508   24.1058 C   0  0  0  0  0  0  0  0  0  0  0  0
   16.8121    4.4035   25.2112 C   0  0  0  0  0  0  0  0  0  0  0  0
   17.5193    4.1062   26.3729 C   0  0  0  0  0  0  0  0  0  0  0  0
   18.2574    2.9270   26.4829 C   0  0  0  0  0  0  0  0  0  0  0  0
   18.2661    2.0782   25.3700 C   0  0  0  0  0  0  0  0  0  0  0  0
  2  1  1  6
  2  3  1  0
  3  4  1  0
  2  5  1  0
  5  6  1  0
  6  7  1  0
  7  8  1  0
  8  9  1  0
  9 10  2  0
 10 11  1  0
 11 12  2  0
 12 13  1  0
 13 14  2  0
 14 15  1  0
 15 16  2  0
 16  8  1  0
 16 11  1  0
M  END
>  <fragmenstein_mode>  (19) 
expansion

>  <csv_name>  (19) 
A71EV2AZ_iter1_frags_knitwork_impure_split1000_batch000.csv

>  <HIPPO Pose ID>  (19) 
679

>  <energy_score>  (19) 
-11.211317

>  <fragmenstein_outcome>  (19) 
acceptable

>  <fragmenstein_error>  (19) 
None

>  <original SMILES>  (19) 
C[C@H](CO)NCCn1cnc2ccccc21

>  <original ID>  (19) 
SNLWHVVYKUWCMG-SNVBAGLBSA-N

>  <inchikey>  (19) 
SNLWHVVYKUWCMG-SNVBAGLBSA-N

>  <tags>  (19) 
Fragmenstein placed

>  <SLURM_JOB_ID>  (19) 
303813

>  <score_inspiration>  (19) 
0.709664

>  <scratch_subdir>  (19) 
/opt/xchem-fragalysis-2/maxwin/BulkDock/SCRATCH/303813/C848-P5

>  <distance_score>  (19) 
0.805861

>  <ref_pdb>  (19) 
A0503a

>  <HIPPO Compound ID>  (19) 
848

>  <alias>  (19) 
None

>  <ref_mols>  (19) 
A0503a,A0759a

>  <name>  (19) 
SNLWHVVYKUWCMG-SNVBAGLBSA-N

>  <fragmenstein_runtime>  (19) 
0.678098

$$$$
681
     RDKit          3D

 20 21  0  0  0  0  0  0  0  0999 V2000
   27.3090    1.2356   22.5821 C   0  0  0  0  0  0  0  0  0  0  0  0
   25.8021    0.9267   22.4645 C   0  0  0  0  0  0  0  0  0  0  0  0
   25.6392   -0.4572   21.8046 C   0  0  0  0  0  0  0  0  0  0  0  0
   25.2174    1.9853   21.5153 C   0  0  0  0  0  0  0  0  0  0  0  0
   25.1181    1.0086   23.8783 C   0  0  2  0  0  0  0  0  0  0  0  0
   25.6861   -0.0578   24.8664 C   0  0  0  0  0  0  0  0  0  0  0  0
   25.3870    0.2642   26.2248 O   0  0  0  0  0  0  0  0  0  0  0  0
   23.6429    0.9068   23.7313 N   0  0  0  0  0  0  0  0  0  0  0  0
   22.9592    1.2372   24.9743 C   0  0  0  0  0  0  0  0  0  0  0  0
   21.5084    1.5788   24.7205 C   0  0  0  0  0  0  0  0  0  0  0  0
   20.6235    0.4042   24.2607 C   0  0  0  0  0  0  0  0  0  0  0  0
   19.2154    0.8284   24.5026 C   0  0  0  0  0  0  0  0  0  0  0  0
   18.3892    1.4172   23.6594 N   0  0  0  0  0  0  0  0  0  0  0  0
   17.7608    2.3651   24.4333 C   0  0  0  0  0  0  0  0  0  0  0  0
   16.9374    3.4320   24.0723 C   0  0  0  0  0  0  0  0  0  0  0  0
   16.6284    4.3806   25.0524 C   0  0  0  0  0  0  0  0  0  0  0  0
   17.1417    4.2893   26.3453 C   0  0  0  0  0  0  0  0  0  0  0  0
   17.8949    3.1903   26.7438 C   0  0  0  0  0  0  0  0  0  0  0  0
   18.1395    2.2375   25.7637 C   0  0  0  0  0  0  0  0  0  0  0  0
   18.8079    1.0440   25.7995 N   0  0  0  0  0  0  0  0  0  0  0  0
  1  2  1  0
  2  3  1  0
  2  4  1  0
  2  5  1  0
  5  6  1  1
  6  7  1  0
  5  8  1  0
  8  9  1  0
  9 10  1  0
 10 11  1  0
 11 12  1  0
 12 13  2  0
 13 14  1  0
 14 15  2  0
 15 16  1  0
 16 17  2  0
 17 18  1  0
 18 19  2  0
 19 20  1  0
 20 12  1  0
 19 14  1  0
M  END
>  <fragmenstein_mode>  (20) 
expansion

>  <csv_name>  (20) 
A71EV2AZ_iter1_frags_knitwork_impure_split1000_batch000.csv

>  <HIPPO Pose ID>  (20) 
681

>  <energy_score>  (20) 
-12.126783

>  <fragmenstein_outcome>  (20) 
acceptable

>  <fragmenstein_error>  (20) 
None

>  <original SMILES>  (20) 
CC(C)(C)[C@H](CO)NCCCc1nc2ccccc2[nH]1

>  <original ID>  (20) 
QEEQXOPJJUMQDO-AWEZNQCLSA-N

>  <inchikey>  (20) 
QEEQXOPJJUMQDO-AWEZNQCLSA-N

>  <tags>  (20) 
Fragmenstein placed

>  <SLURM_JOB_ID>  (20) 
303813

>  <score_inspiration>  (20) 
0.544062

>  <scratch_subdir>  (20) 
/opt/xchem-fragalysis-2/maxwin/BulkDock/SCRATCH/303813/C849-P5

>  <distance_score>  (20) 
0.995131

>  <ref_pdb>  (20) 
A0503a

>  <HIPPO Compound ID>  (20) 
849

>  <alias>  (20) 
None

>  <ref_mols>  (20) 
A0503a,A0759a

>  <name>  (20) 
QEEQXOPJJUMQDO-AWEZNQCLSA-N

>  <fragmenstein_runtime>  (20) 
4.653975

$$$$
711
     RDKit          3D

 20 21  0  0  0  0  0  0  0  0999 V2000
   25.7838    0.8060   24.9385 C   0  0  0  0  0  0  0  0  0  0  0  0
   25.0275    1.6179   23.8846 C   0  0  2  0  0  0  0  0  0  0  0  0
   25.0656    2.9949   24.3116 O   0  0  0  0  0  0  0  0  0  0  0  0
   23.5575    1.1738   23.7598 C   0  0  0  0  0  0  0  0  0  0  0  0
   22.7962    1.3932   24.9958 N   0  0  0  0  0  0  0  0  0  0  0  0
   21.3667    1.2786   24.7331 C   0  0  0  0  0  0  0  0  0  0  0  0
   20.9113   -0.1942   24.6952 C   0  0  0  0  0  0  0  0  0  0  0  0
   19.5560   -0.4107   23.9954 C   0  0  0  0  0  0  0  0  0  0  0  0
   18.5824    0.6181   24.4252 C   0  0  0  0  0  0  0  0  0  0  0  0
   17.8698    1.4133   23.6559 N   0  0  0  0  0  0  0  0  0  0  0  0
   17.5043    2.4504   24.4766 C   0  0  0  0  0  0  0  0  0  0  0  0
   16.7944    3.6149   24.1953 C   0  0  0  0  0  0  0  0  0  0  0  0
   16.6665    4.5597   25.2152 C   0  0  0  0  0  0  0  0  0  0  0  0
   17.2689    4.3872   26.4606 C   0  0  0  0  0  0  0  0  0  0  0  0
   17.9476    3.2150   26.7707 C   0  0  0  0  0  0  0  0  0  0  0  0
   17.9947    2.2605   25.7620 C   0  0  0  0  0  0  0  0  0  0  0  0
   18.4824    0.9876   25.7437 N   0  0  0  0  0  0  0  0  0  0  0  0
   25.6772    1.4235   22.5048 C   0  0  0  0  0  0  0  0  0  0  0  0
   25.0396    2.1944   21.5828 F   0  0  0  0  0  0  0  0  0  0  0  0
   26.9724    1.8164   22.5178 F   0  0  0  0  0  0  0  0  0  0  0  0
  2  1  1  1
  2  3  1  0
  2  4  1  0
  4  5  1  0
  5  6  1  0
  6  7  1  0
  7  8  1  0
  8  9  1  0
  9 10  2  0
 10 11  1  0
 11 12  2  0
 12 13  1  0
 13 14  2  0
 14 15  1  0
 15 16  2  0
 16 17  1  0
  2 18  1  0
 18 19  1  0
 18 20  1  0
 17  9  1  0
 16 11  1  0
M  END
>  <fragmenstein_mode>  (21) 
expansion

>  <csv_name>  (21) 
A71EV2AZ_iter1_frags_knitwork_impure_split1000_batch000.csv

>  <HIPPO Pose ID>  (21) 
711

>  <energy_score>  (21) 
-27.877493

>  <fragmenstein_outcome>  (21) 
acceptable

>  <fragmenstein_error>  (21) 
None

>  <original SMILES>  (21) 
C[C@](O)(CNCCCc1nc2ccccc2[nH]1)C(F)F

>  <original ID>  (21) 
MCMGHHOHFIQMGN-AWEZNQCLSA-N

>  <inchikey>  (21) 
MCMGHHOHFIQMGN-AWEZNQCLSA-N

>  <tags>  (21) 
Fragmenstein placed

>  <SLURM_JOB_ID>  (21) 
303813

>  <score_inspiration>  (21) 
0.576084

>  <scratch_subdir>  (21) 
/opt/xchem-fragalysis-2/maxwin/BulkDock/SCRATCH/303813/C873-P5

>  <distance_score>  (21) 
0.968928

>  <ref_pdb>  (21) 
A0503a

>  <HIPPO Compound ID>  (21) 
873

>  <alias>  (21) 
None

>  <ref_mols>  (21) 
A0503a,A0759a

>  <name>  (21) 
MCMGHHOHFIQMGN-AWEZNQCLSA-N

>  <fragmenstein_runtime>  (21) 
1.883575

$$$$
715
     RDKit          3D

 15 16  0  0  0  0  0  0  0  0999 V2000
   24.5339    2.0528   23.6057 O   0  0  0  0  0  0  0  0  0  0  0  0
   23.2768    1.5019   23.9799 C   0  0  0  0  0  0  0  0  0  0  0  0
   22.9369    1.8747   25.4262 C   0  0  0  0  0  0  0  0  0  0  0  0
   21.5356    1.6699   25.7881 N   0  0  0  0  0  0  0  0  0  0  0  0
   21.1416    0.2583   25.7716 C   0  0  0  0  0  0  0  0  0  0  0  0
   19.6440    0.0812   26.0423 C   0  0  0  0  0  0  0  0  0  0  0  0
   18.8258    0.8419   25.1199 N   0  0  0  0  0  0  0  0  0  0  0  0
   18.5307    0.4788   23.8356 C   0  0  0  0  0  0  0  0  0  0  0  0
   17.7684    1.3689   23.2418 N   0  0  0  0  0  0  0  0  0  0  0  0
   17.5728    2.3527   24.1815 C   0  0  0  0  0  0  0  0  0  0  0  0
   16.8312    3.5349   24.0967 C   0  0  0  0  0  0  0  0  0  0  0  0
   16.8000    4.3916   25.1994 C   0  0  0  0  0  0  0  0  0  0  0  0
   17.5002    4.0918   26.3644 C   0  0  0  0  0  0  0  0  0  0  0  0
   18.2284    2.9070   26.4799 C   0  0  0  0  0  0  0  0  0  0  0  0
   18.2378    2.0563   25.3681 C   0  0  0  0  0  0  0  0  0  0  0  0
  1  2  1  0
  2  3  1  0
  3  4  1  0
  4  5  1  0
  5  6  1  0
  6  7  1  0
  7  8  1  0
  8  9  2  0
  9 10  1  0
 10 11  2  0
 11 12  1  0
 12 13  2  0
 13 14  1  0
 14 15  2  0
 15  7  1  0
 15 10  1  0
M  END
>  <fragmenstein_mode>  (22) 
expansion

>  <csv_name>  (22) 
A71EV2AZ_iter1_frags_knitwork_impure_split1000_batch000.csv

>  <HIPPO Pose ID>  (22) 
715

>  <energy_score>  (22) 
-19.642032

>  <fragmenstein_outcome>  (22) 
acceptable

>  <fragmenstein_error>  (22) 
None

>  <original SMILES>  (22) 
OCCNCCn1cnc2ccccc21

>  <original ID>  (22) 
VAGNNYIPSLSJCE-UHFFFAOYSA-N

>  <inchikey>  (22) 
VAGNNYIPSLSJCE-UHFFFAOYSA-N

>  <tags>  (22) 
Fragmenstein placed

>  <SLURM_JOB_ID>  (22) 
303813

>  <score_inspiration>  (22) 
0.739664

>  <scratch_subdir>  (22) 
/opt/xchem-fragalysis-2/maxwin/BulkDock/SCRATCH/303813/C876-P5

>  <distance_score>  (22) 
0.803368

>  <ref_pdb>  (22) 
A0503a

>  <HIPPO Compound ID>  (22) 
876

>  <alias>  (22) 
None

>  <ref_mols>  (22) 
A0503a,A0759a

>  <name>  (22) 
VAGNNYIPSLSJCE-UHFFFAOYSA-N

>  <fragmenstein_runtime>  (22) 
0.775518

$$$$
716
     RDKit          3D

 15 16  0  0  0  0  0  0  0  0999 V2000
   24.6426    1.6430   23.4474 O   0  0  0  0  0  0  0  0  0  0  0  0
   23.2325    1.4705   23.5946 C   0  0  0  0  0  0  0  0  0  0  0  0
   22.8762    1.7177   25.0568 C   0  0  0  0  0  0  0  0  0  0  0  0
   21.4718    1.5364   25.3861 N   0  0  0  0  0  0  0  0  0  0  0  0
   21.1203    0.1332   25.6003 C   0  0  0  0  0  0  0  0  0  0  0  0
   19.6521   -0.0415   26.0006 C   0  0  0  0  0  0  0  0  0  0  0  0
   18.7517    0.6887   25.1348 N   0  0  0  0  0  0  0  0  0  0  0  0
   18.3795    0.3142   23.8748 C   0  0  0  0  0  0  0  0  0  0  0  0
   17.5635    1.1874   23.3292 N   0  0  0  0  0  0  0  0  0  0  0  0
   17.4145    2.1708   24.2784 C   0  0  0  0  0  0  0  0  0  0  0  0
   16.6361    3.3291   24.2480 C   0  0  0  0  0  0  0  0  0  0  0  0
   16.6550    4.1795   25.3548 C   0  0  0  0  0  0  0  0  0  0  0  0
   17.4402    3.9052   26.4699 C   0  0  0  0  0  0  0  0  0  0  0  0
   18.2097    2.7450   26.5296 C   0  0  0  0  0  0  0  0  0  0  0  0
   18.1614    1.8931   25.4190 C   0  0  0  0  0  0  0  0  0  0  0  0
  1  2  1  0
  2  3  1  0
  3  4  1  0
  4  5  1  0
  5  6  1  0
  6  7  1  0
  7  8  1  0
  8  9  2  0
  9 10  1  0
 10 11  2  0
 11 12  1  0
 12 13  2  0
 13 14  1  0
 14 15  2  0
 15  7  1  0
 15 10  1  0
M  END
>  <fragmenstein_mode>  (23) 
expansion

>  <csv_name>  (23) 
A71EV2AZ_iter1_frags_knitwork_impure_split1000_batch000.csv

>  <HIPPO Pose ID>  (23) 
716

>  <energy_score>  (23) 
-19.293671

>  <fragmenstein_outcome>  (23) 
acceptable

>  <fragmenstein_error>  (23) 
None

>  <original SMILES>  (23) 
OCCNCCn1cnc2ccccc21

>  <original ID>  (23) 
VAGNNYIPSLSJCE-UHFFFAOYSA-N

>  <inchikey>  (23) 
VAGNNYIPSLSJCE-UHFFFAOYSA-N

>  <tags>  (23) 
Fragmenstein placed

>  <SLURM_JOB_ID>  (23) 
303813

>  <score_inspiration>  (23) 
0.692368

>  <scratch_subdir>  (23) 
/opt/xchem-fragalysis-2/maxwin/BulkDock/SCRATCH/303813/C876-P6

>  <distance_score>  (23) 
0.642712

>  <ref_pdb>  (23) 
A0759a

>  <HIPPO Compound ID>  (23) 
876

>  <alias>  (23) 
None

>  <ref_mols>  (23) 
A0503a,A0759a

>  <name>  (23) 
VAGNNYIPSLSJCE-UHFFFAOYSA-N

>  <fragmenstein_runtime>  (23) 
0.798893

$$$$
717
     RDKit          3D

 16 17  0  0  0  0  0  0  0  0999 V2000
   25.0660    2.2031   21.3770 O   0  0  0  0  0  0  0  0  0  0  0  0
   25.6074    1.2009   22.2217 C   0  0  0  0  0  0  0  0  0  0  0  0
   25.0203    1.2735   23.6241 C   0  0  0  0  0  0  0  0  0  0  0  0
   23.5019    1.1446   23.5984 C   0  0  0  0  0  0  0  0  0  0  0  0
   23.0110    0.9658   24.9602 N   0  0  0  0  0  0  0  0  0  0  0  0
   21.5940    1.2779   25.0581 C   0  0  0  0  0  0  0  0  0  0  0  0
   20.6180    0.2817   24.3854 C   0  0  0  0  0  0  0  0  0  0  0  0
   19.2448    0.8149   24.6055 C   0  0  0  0  0  0  0  0  0  0  0  0
   18.4490    1.3996   23.7311 N   0  0  0  0  0  0  0  0  0  0  0  0
   17.8037    2.3641   24.4693 C   0  0  0  0  0  0  0  0  0  0  0  0
   16.9744    3.4121   24.0698 C   0  0  0  0  0  0  0  0  0  0  0  0
   16.6337    4.3745   25.0256 C   0  0  0  0  0  0  0  0  0  0  0  0
   17.1280    4.3195   26.3281 C   0  0  0  0  0  0  0  0  0  0  0  0
   17.8916    3.2428   26.7622 C   0  0  0  0  0  0  0  0  0  0  0  0
   18.1621    2.2724   25.8078 C   0  0  0  0  0  0  0  0  0  0  0  0
   18.8257    1.0813   25.8872 N   0  0  0  0  0  0  0  0  0  0  0  0
  1  2  1  0
  2  3  1  0
  3  4  1  0
  4  5  1  0
  5  6  1  0
  6  7  1  0
  7  8  1  0
  8  9  2  0
  9 10  1  0
 10 11  2  0
 11 12  1  0
 12 13  2  0
 13 14  1  0
 14 15  2  0
 15 16  1  0
 16  8  1  0
 15 10  1  0
M  END
>  <fragmenstein_mode>  (24) 
expansion

>  <csv_name>  (24) 
A71EV2AZ_iter1_frags_knitwork_impure_split1000_batch000.csv

>  <HIPPO Pose ID>  (24) 
717

>  <energy_score>  (24) 
-9.520448

>  <fragmenstein_outcome>  (24) 
acceptable

>  <fragmenstein_error>  (24) 
None

>  <original SMILES>  (24) 
OCCCNCCc1nc2ccccc2[nH]1

>  <original ID>  (24) 
HFYRFGURHQNLDS-UHFFFAOYSA-N

>  <inchikey>  (24) 
HFYRFGURHQNLDS-UHFFFAOYSA-N

>  <tags>  (24) 
Fragmenstein placed

>  <SLURM_JOB_ID>  (24) 
303813

>  <score_inspiration>  (24) 
0.671085

>  <scratch_subdir>  (24) 
/opt/xchem-fragalysis-2/maxwin/BulkDock/SCRATCH/303813/C881-P5

>  <distance_score>  (24) 
0.736753

>  <ref_pdb>  (24) 
A0503a

>  <HIPPO Compound ID>  (24) 
881

>  <alias>  (24) 
None

>  <ref_mols>  (24) 
A0503a,A0759a

>  <name>  (24) 
HFYRFGURHQNLDS-UHFFFAOYSA-N

>  <fragmenstein_runtime>  (24) 
1.506032

$$$$
718
     RDKit          3D

 16 17  0  0  0  0  0  0  0  0999 V2000
   25.1883    2.7406   21.4204 O   0  0  0  0  0  0  0  0  0  0  0  0
   25.5702    1.5766   22.1509 C   0  0  0  0  0  0  0  0  0  0  0  0
   24.9636    1.5120   23.5442 C   0  0  0  0  0  0  0  0  0  0  0  0
   23.4480    1.3642   23.4935 C   0  0  0  0  0  0  0  0  0  0  0  0
   22.9758    1.1680   24.8580 N   0  0  0  0  0  0  0  0  0  0  0  0
   21.5414    1.4198   24.9595 C   0  0  0  0  0  0  0  0  0  0  0  0
   20.6313    0.3535   24.2985 C   0  0  0  0  0  0  0  0  0  0  0  0
   19.2274    0.7632   24.5628 C   0  0  0  0  0  0  0  0  0  0  0  0
   18.4011    1.3826   23.7424 N   0  0  0  0  0  0  0  0  0  0  0  0
   17.7446    2.2696   24.5635 C   0  0  0  0  0  0  0  0  0  0  0  0
   16.8878    3.3259   24.2615 C   0  0  0  0  0  0  0  0  0  0  0  0
   16.5352    4.1959   25.2968 C   0  0  0  0  0  0  0  0  0  0  0  0
   17.0433    4.0469   26.5870 C   0  0  0  0  0  0  0  0  0  0  0  0
   17.8300    2.9535   26.9234 C   0  0  0  0  0  0  0  0  0  0  0  0
   18.1131    2.0740   25.8880 C   0  0  0  0  0  0  0  0  0  0  0  0
   18.8003    0.8934   25.8627 N   0  0  0  0  0  0  0  0  0  0  0  0
  1  2  1  0
  2  3  1  0
  3  4  1  0
  4  5  1  0
  5  6  1  0
  6  7  1  0
  7  8  1  0
  8  9  2  0
  9 10  1  0
 10 11  2  0
 11 12  1  0
 12 13  2  0
 13 14  1  0
 14 15  2  0
 15 16  1  0
 16  8  1  0
 15 10  1  0
M  END
>  <fragmenstein_mode>  (25) 
expansion

>  <csv_name>  (25) 
A71EV2AZ_iter1_frags_knitwork_impure_split1000_batch000.csv

>  <HIPPO Pose ID>  (25) 
718

>  <energy_score>  (25) 
-7.326747

>  <fragmenstein_outcome>  (25) 
acceptable

>  <fragmenstein_error>  (25) 
None

>  <original SMILES>  (25) 
OCCCNCCc1nc2ccccc2[nH]1

>  <original ID>  (25) 
HFYRFGURHQNLDS-UHFFFAOYSA-N

>  <inchikey>  (25) 
HFYRFGURHQNLDS-UHFFFAOYSA-N

>  <tags>  (25) 
Fragmenstein placed

>  <SLURM_JOB_ID>  (25) 
303813

>  <score_inspiration>  (25) 
0.64793

>  <scratch_subdir>  (25) 
/opt/xchem-fragalysis-2/maxwin/BulkDock/SCRATCH/303813/C881-P6

>  <distance_score>  (25) 
0.742463

>  <ref_pdb>  (25) 
A0759a

>  <HIPPO Compound ID>  (25) 
881

>  <alias>  (25) 
None

>  <ref_mols>  (25) 
A0503a,A0759a

>  <name>  (25) 
HFYRFGURHQNLDS-UHFFFAOYSA-N

>  <fragmenstein_runtime>  (25) 
1.617601

$$$$
739
     RDKit          3D

 21 23  0  0  0  0  0  0  0  0999 V2000
   27.2331    1.7383   23.6286 C   0  0  0  0  0  0  0  0  0  0  0  0
   26.2846    1.9393   22.5416 N   0  0  0  0  0  0  0  0  0  0  0  0
   25.1828    0.9631   22.5585 C   0  0  0  0  0  0  0  0  0  0  0  0
   24.2436    0.9810   23.7907 C   0  0  2  0  0  0  0  0  0  0  0  0
   24.8824    0.3160   24.8986 O   0  0  0  0  0  0  0  0  0  0  0  0
   22.9186    0.2373   23.4395 C   0  0  0  0  0  0  0  0  0  0  0  0
   22.1489   -0.2548   24.6099 N   0  0  0  0  0  0  0  0  0  0  0  0
   20.9648   -1.0379   24.2021 C   0  0  0  0  0  0  0  0  0  0  0  0
   19.6730   -0.2111   24.1287 C   0  0  0  0  0  0  0  0  0  0  0  0
   19.2703    0.4474   25.4899 C   0  0  0  0  0  0  0  0  0  0  0  0
   18.4002    1.7228   25.3339 C   0  0  0  0  0  0  0  0  0  0  0  0
   17.6106    1.8253   24.1545 C   0  0  0  0  0  0  0  0  0  0  0  0
   16.7033    2.8514   23.9204 C   0  0  0  0  0  0  0  0  0  0  0  0
   16.5045    3.8461   24.8559 C   0  0  0  0  0  0  0  0  0  0  0  0
   17.2601    3.7812   26.0225 C   0  0  0  0  0  0  0  0  0  0  0  0
   17.2178    4.6543   27.0876 N   0  0  0  0  0  0  0  0  0  0  0  0
   18.1183    4.2682   28.0355 C   0  0  0  0  0  0  0  0  0  0  0  0
   18.6940    3.0939   27.6016 C   0  0  0  0  0  0  0  0  0  0  0  0
   18.1937    2.7695   26.2971 C   0  0  0  0  0  0  0  0  0  0  0  0
   20.5398    0.5690   26.3424 C   0  0  0  0  0  0  0  0  0  0  0  0
   21.7537    0.8593   25.4747 C   0  0  0  0  0  0  0  0  0  0  0  0
  1  2  1  0
  2  3  1  0
  3  4  1  0
  4  5  1  1
  4  6  1  0
  6  7  1  0
  7  8  1  0
  8  9  1  0
  9 10  1  0
 10 11  1  0
 11 12  2  0
 12 13  1  0
 13 14  2  0
 14 15  1  0
 15 16  1  0
 16 17  1  0
 17 18  2  0
 18 19  1  0
 10 20  1  0
 20 21  1  0
 21  7  1  0
 19 11  1  0
 19 15  2  0
M  END
>  <fragmenstein_mode>  (26) 
expansion

>  <csv_name>  (26) 
A71EV2AZ_iter1_frags_knitwork_impure_split1000_batch000.csv

>  <HIPPO Pose ID>  (26) 
739

>  <energy_score>  (26) 
-28.958157

>  <fragmenstein_outcome>  (26) 
acceptable

>  <fragmenstein_error>  (26) 
None

>  <original SMILES>  (26) 
CNC[C@H](O)CN1CCC(c2cccc3[nH]ccc23)CC1

>  <original ID>  (26) 
OYQBJTDDXNSVCT-AWEZNQCLSA-N

>  <inchikey>  (26) 
OYQBJTDDXNSVCT-AWEZNQCLSA-N

>  <tags>  (26) 
Fragmenstein placed

>  <SLURM_JOB_ID>  (26) 
303813

>  <score_inspiration>  (26) 
0.554186

>  <scratch_subdir>  (26) 
/opt/xchem-fragalysis-2/maxwin/BulkDock/SCRATCH/303813/C908-P1

>  <distance_score>  (26) 
0.908609

>  <ref_pdb>  (26) 
A0229a

>  <HIPPO Compound ID>  (26) 
908

>  <alias>  (26) 
None

>  <ref_mols>  (26) 
A0229a,A0759a

>  <name>  (26) 
OYQBJTDDXNSVCT-AWEZNQCLSA-N

>  <fragmenstein_runtime>  (26) 
1.393884

$$$$
740
     RDKit          3D

 21 23  0  0  0  0  0  0  0  0999 V2000
   27.3726    1.7346   23.6476 C   0  0  0  0  0  0  0  0  0  0  0  0
   26.6248    1.9376   22.4102 N   0  0  0  0  0  0  0  0  0  0  0  0
   25.3239    1.2466   22.4146 C   0  0  0  0  0  0  0  0  0  0  0  0
   24.3835    1.4852   23.6217 C   0  0  2  0  0  0  0  0  0  0  0  0
   24.8234    0.7026   24.7481 O   0  0  0  0  0  0  0  0  0  0  0  0
   22.9475    1.0395   23.2445 C   0  0  0  0  0  0  0  0  0  0  0  0
   22.1201    0.6968   24.4198 N   0  0  0  0  0  0  0  0  0  0  0  0
   20.8998   -0.0108   23.9862 C   0  0  0  0  0  0  0  0  0  0  0  0
   20.0091   -0.4170   25.1698 C   0  0  0  0  0  0  0  0  0  0  0  0
   19.6858    0.7530   26.1191 C   0  0  0  0  0  0  0  0  0  0  0  0
   18.6248    1.7578   25.6770 C   0  0  0  0  0  0  0  0  0  0  0  0
   17.9494    1.6389   24.4425 C   0  0  0  0  0  0  0  0  0  0  0  0
   16.9768    2.5482   24.0351 C   0  0  0  0  0  0  0  0  0  0  0  0
   16.6129    3.6193   24.8387 C   0  0  0  0  0  0  0  0  0  0  0  0
   17.2525    3.7348   26.0707 C   0  0  0  0  0  0  0  0  0  0  0  0
   17.0489    4.6601   27.0682 N   0  0  0  0  0  0  0  0  0  0  0  0
   17.8615    4.3985   28.1351 C   0  0  0  0  0  0  0  0  0  0  0  0
   18.5840    3.2702   27.8317 C   0  0  0  0  0  0  0  0  0  0  0  0
   18.2265    2.8421   26.5133 C   0  0  0  0  0  0  0  0  0  0  0  0
   21.0161    1.4497   26.4473 C   0  0  0  0  0  0  0  0  0  0  0  0
   21.7516    1.8926   25.1881 C   0  0  0  0  0  0  0  0  0  0  0  0
  1  2  1  0
  2  3  1  0
  3  4  1  0
  4  5  1  1
  4  6  1  0
  6  7  1  0
  7  8  1  0
  8  9  1  0
  9 10  1  0
 10 11  1  0
 11 12  2  0
 12 13  1  0
 13 14  2  0
 14 15  1  0
 15 16  1  0
 16 17  1  0
 17 18  2  0
 18 19  1  0
 10 20  1  0
 20 21  1  0
 21  7  1  0
 19 11  1  0
 19 15  2  0
M  END
>  <fragmenstein_mode>  (27) 
expansion

>  <csv_name>  (27) 
A71EV2AZ_iter1_frags_knitwork_impure_split1000_batch000.csv

>  <HIPPO Pose ID>  (27) 
740

>  <energy_score>  (27) 
-43.164895

>  <fragmenstein_outcome>  (27) 
acceptable

>  <fragmenstein_error>  (27) 
None

>  <original SMILES>  (27) 
CNC[C@H](O)CN1CCC(c2cccc3[nH]ccc23)CC1

>  <original ID>  (27) 
OYQBJTDDXNSVCT-AWEZNQCLSA-N

>  <inchikey>  (27) 
OYQBJTDDXNSVCT-AWEZNQCLSA-N

>  <tags>  (27) 
Fragmenstein placed

>  <SLURM_JOB_ID>  (27) 
303813

>  <score_inspiration>  (27) 
0.587125

>  <scratch_subdir>  (27) 
/opt/xchem-fragalysis-2/maxwin/BulkDock/SCRATCH/303813/C908-P6

>  <distance_score>  (27) 
0.955474

>  <ref_pdb>  (27) 
A0759a

>  <HIPPO Compound ID>  (27) 
908

>  <alias>  (27) 
None

>  <ref_mols>  (27) 
A0229a,A0759a

>  <name>  (27) 
OYQBJTDDXNSVCT-AWEZNQCLSA-N

>  <fragmenstein_runtime>  (27) 
1.846894

$$$$
813
     RDKit          3D

 22 24  0  0  0  0  0  0  0  0999 V2000
   18.5466    0.5354   22.8301 C   0  0  0  0  0  0  0  0  0  0  0  0
   17.6309    1.6055   23.0120 O   0  0  0  0  0  0  0  0  0  0  0  0
   17.6672    2.3067   24.1886 C   0  0  0  0  0  0  0  0  0  0  0  0
   16.9592    3.5098   24.1232 C   0  0  0  0  0  0  0  0  0  0  0  0
   16.8974    4.3633   25.2176 C   0  0  0  0  0  0  0  0  0  0  0  0
   17.5475    4.0260   26.3940 C   0  0  0  0  0  0  0  0  0  0  0  0
   18.2259    2.8110   26.4881 C   0  0  0  0  0  0  0  0  0  0  0  0
   18.2909    1.9403   25.3933 C   0  0  0  0  0  0  0  0  0  0  0  0
   18.8983    0.7224   25.4277 O   0  0  0  0  0  0  0  0  0  0  0  0
   19.6753    0.2998   26.5504 C   0  0  1  0  0  0  0  0  0  0  0  0
   19.8488   -1.2128   26.4044 C   0  0  0  0  0  0  0  0  0  0  0  0
   21.0429    1.0154   26.5768 C   0  0  0  0  0  0  0  0  0  0  0  0
   21.7354    0.9593   25.2865 N   0  0  0  0  0  0  0  0  0  0  0  0
   22.9812    1.7087   25.3276 C   0  0  0  0  0  0  0  0  0  0  0  0
   23.7962    1.4326   24.1264 C   0  0  0  0  0  0  0  0  0  0  0  0
   23.9151    0.3234   23.2948 C   0  0  0  0  0  0  0  0  0  0  0  0
   24.8502    0.5167   22.2950 N   0  0  0  0  0  0  0  0  0  0  0  0
   25.2827    1.7202   22.5319 C   0  0  0  0  0  0  0  0  0  0  0  0
   26.4142    2.7762   21.7551 S   0  0  0  0  0  0  0  0  0  0  0  0
   26.0956    3.9841   23.0108 C   0  0  0  0  0  0  0  0  0  0  0  0
   25.1841    3.5748   23.9103 C   0  0  0  0  0  0  0  0  0  0  0  0
   24.7211    2.3093   23.6249 N   0  0  0  0  0  0  0  0  0  0  0  0
  1  2  1  0
  2  3  1  0
  3  4  2  0
  4  5  1  0
  5  6  2  0
  6  7  1  0
  7  8  2  0
  8  9  1  0
  9 10  1  0
 10 11  1  6
 10 12  1  0
 12 13  1  0
 13 14  1  0
 14 15  1  0
 15 16  2  0
 16 17  1  0
 17 18  2  0
 18 19  1  0
 19 20  1  0
 20 21  2  0
 21 22  1  0
  8  3  1  0
 22 15  1  0
 22 18  1  0
M  END
>  <fragmenstein_mode>  (28) 
expansion

>  <csv_name>  (28) 
A71EV2AZ_iter1_frags_knitwork_impure_split1000_batch000.csv

>  <HIPPO Pose ID>  (28) 
813

>  <energy_score>  (28) 
-44.867516

>  <fragmenstein_outcome>  (28) 
acceptable

>  <fragmenstein_error>  (28) 
None

>  <original SMILES>  (28) 
COc1ccccc1O[C@@H](C)CNCc1cnc2sccn12

>  <original ID>  (28) 
NWNDXWKRJDTNKY-LBPRGKRZSA-N

>  <inchikey>  (28) 
NWNDXWKRJDTNKY-LBPRGKRZSA-N

>  <tags>  (28) 
Fragmenstein placed

>  <SLURM_JOB_ID>  (28) 
303813

>  <score_inspiration>  (28) 
0.496929

>  <scratch_subdir>  (28) 
/opt/xchem-fragalysis-2/maxwin/BulkDock/SCRATCH/303813/C980-P5

>  <distance_score>  (28) 
0.99128

>  <ref_pdb>  (28) 
A0503a

>  <HIPPO Compound ID>  (28) 
980

>  <alias>  (28) 
None

>  <ref_mols>  (28) 
A0503a,A0759a

>  <name>  (28) 
NWNDXWKRJDTNKY-LBPRGKRZSA-N

>  <fragmenstein_runtime>  (28) 
7.361724

$$$$
