A71EV2AZ-x0759_A_250_1_A71EV2AZ-x0503+A+245+1__LIG
     RDKit          3D

 15 16  0  0  0  0  0  0  0  0999 V2000
   26.6310    1.3520   22.6620 C   0  0  0  0  0  0  0  0  0  0  0  0
   25.1190    1.3980   22.5440 C   0  0  2  0  0  0  0  0  0  0  0  0
   24.7260    2.3630   21.5690 O   0  0  0  0  0  0  0  0  0  0  0  0
   24.4530    1.7050   23.8770 C   0  0  0  0  0  0  0  0  0  0  0  0
   22.9880    1.5630   23.8170 N   0  0  0  0  0  0  0  0  0  0  0  0
   22.3710    1.6600   25.1350 C   0  0  0  0  0  0  0  0  0  0  0  0
   20.8580    1.7300   25.1180 C   0  0  0  0  0  0  0  0  0  0  0  0
   20.1120    0.6770   25.6150 C   0  0  0  0  0  0  0  0  0  0  0  0
   18.7130    0.6890   25.6290 C   0  0  0  0  0  0  0  0  0  0  0  0
   18.1060    1.7980   25.1230 C   0  0  0  0  0  0  0  0  0  0  0  0
   16.7580    2.0640   25.0250 O   0  0  0  0  0  0  0  0  0  0  0  0
   16.6660    3.2730   24.2710 C   0  0  0  0  0  0  0  0  0  0  0  0
   17.9730    3.8430   24.1910 O   0  0  0  0  0  0  0  0  0  0  0  0
   18.8340    2.8610   24.6310 C   0  0  0  0  0  0  0  0  0  0  0  0
   20.2050    2.8670   24.6270 C   0  0  0  0  0  0  0  0  0  0  0  0
  2  1  1  1
  2  3  1  0
  2  4  1  0
  4  5  1  0
  5  6  1  0
  6  7  1  0
  7  8  2  0
  8  9  1  0
  9 10  2  0
 10 11  1  0
 11 12  1  0
 12 13  1  0
 13 14  1  0
 14 15  2  0
  7 15  1  0
 10 14  1  0
M  END
$$$$
