A71EV2AZ-x0759_A_250_1_A71EV2AZ-x0503+A+245+1__LIG
     RDKit          3D

 15 16  0  0  0  0  0  0  0  0999 V2000
  -34.5310   -4.3230   -3.2390 C   0  0  0  0  0  0  0  0  0  0  0  0
  -33.2850   -3.8840   -3.9870 C   0  0  2  0  0  0  0  0  0  0  0  0
  -33.1010   -2.4750   -3.8600 O   0  0  0  0  0  0  0  0  0  0  0  0
  -33.3380   -4.2710   -5.4580 C   0  0  0  0  0  0  0  0  0  0  0  0
  -32.0600   -4.0240   -6.1480 N   0  0  0  0  0  0  0  0  0  0  0  0
  -32.0470   -4.5780   -7.4970 C   0  0  0  0  0  0  0  0  0  0  0  0
  -30.8450   -4.1790   -8.3300 C   0  0  0  0  0  0  0  0  0  0  0  0
  -29.9030   -5.1270   -8.6810 C   0  0  0  0  0  0  0  0  0  0  0  0
  -28.7770   -4.8170   -9.4520 C   0  0  0  0  0  0  0  0  0  0  0  0
  -28.6450   -3.5200   -9.8470 C   0  0  0  0  0  0  0  0  0  0  0  0
  -27.6450   -2.9570  -10.6070 O   0  0  0  0  0  0  0  0  0  0  0  0
  -27.8950   -1.5510  -10.5780 C   0  0  0  0  0  0  0  0  0  0  0  0
  -29.2020   -1.3470  -10.0410 O   0  0  0  0  0  0  0  0  0  0  0  0
  -29.5790   -2.5620   -9.5110 C   0  0  0  0  0  0  0  0  0  0  0  0
  -30.6940   -2.8590   -8.7700 C   0  0  0  0  0  0  0  0  0  0  0  0
  2  1  1  1
  2  3  1  0
  2  4  1  0
  4  5  1  0
  5  6  1  0
  6  7  1  0
  7  8  2  0
  8  9  1  0
  9 10  2  0
 10 11  1  0
 11 12  1  0
 12 13  1  0
 13 14  1  0
 14 15  2  0
  7 15  1  0
 10 14  1  0
M  END
$$$$
